
---------- Begin Simulation Statistics ----------
sim_seconds                                  1.625271                       # Number of seconds simulated
sim_ticks                                1625271308500                       # Number of ticks simulated
final_tick                               1625271308500                       # Number of ticks from beginning of simulation (restored from checkpoints and never reset)
sim_freq                                 1000000000000                       # Frequency of simulated ticks
host_inst_rate                                  34245                       # Simulator instruction rate (inst/s)
host_op_rate                                    60018                       # Simulator op (including micro ops) rate (op/s)
host_tick_rate                              111313701                       # Simulator tick rate (ticks/s)
host_mem_usage                                 826532                       # Number of bytes of host memory used
host_seconds                                 14600.82                       # Real time elapsed on the host
sim_insts                                   500000000                       # Number of instructions simulated
sim_ops                                     876313787                       # Number of ops (including micro ops) simulated
system.voltage_domain.voltage                       1                       # Voltage in Volts
system.clk_domain.clock                          1000                       # Clock period in ticks
system.mem_ctrls.bytes_read::cpu.inst           45696                       # Number of bytes read from this memory
system.mem_ctrls.bytes_read::cpu.data       419294976                       # Number of bytes read from this memory
system.mem_ctrls.bytes_read::total          419340672                       # Number of bytes read from this memory
system.mem_ctrls.bytes_inst_read::cpu.inst        45696                       # Number of instructions bytes read from this memory
system.mem_ctrls.bytes_inst_read::total         45696                       # Number of instructions bytes read from this memory
system.mem_ctrls.bytes_written::writebacks     71364672                       # Number of bytes written to this memory
system.mem_ctrls.bytes_written::total        71364672                       # Number of bytes written to this memory
system.mem_ctrls.num_reads::cpu.inst              714                       # Number of read requests responded to by this memory
system.mem_ctrls.num_reads::cpu.data          6551484                       # Number of read requests responded to by this memory
system.mem_ctrls.num_reads::total             6552198                       # Number of read requests responded to by this memory
system.mem_ctrls.num_writes::writebacks       1115073                       # Number of write requests responded to by this memory
system.mem_ctrls.num_writes::total            1115073                       # Number of write requests responded to by this memory
system.mem_ctrls.bw_read::cpu.inst              28116                       # Total read bandwidth from this memory (bytes/s)
system.mem_ctrls.bw_read::cpu.data          257984605                       # Total read bandwidth from this memory (bytes/s)
system.mem_ctrls.bw_read::total             258012721                       # Total read bandwidth from this memory (bytes/s)
system.mem_ctrls.bw_inst_read::cpu.inst         28116                       # Instruction read bandwidth from this memory (bytes/s)
system.mem_ctrls.bw_inst_read::total            28116                       # Instruction read bandwidth from this memory (bytes/s)
system.mem_ctrls.bw_write::writebacks        43909390                       # Write bandwidth from this memory (bytes/s)
system.mem_ctrls.bw_write::total             43909390                       # Write bandwidth from this memory (bytes/s)
system.mem_ctrls.bw_total::writebacks        43909390                       # Total bandwidth to/from this memory (bytes/s)
system.mem_ctrls.bw_total::cpu.inst             28116                       # Total bandwidth to/from this memory (bytes/s)
system.mem_ctrls.bw_total::cpu.data         257984605                       # Total bandwidth to/from this memory (bytes/s)
system.mem_ctrls.bw_total::total            301922111                       # Total bandwidth to/from this memory (bytes/s)
system.mem_ctrls.readReqs                     6552198                       # Number of read requests accepted
system.mem_ctrls.writeReqs                    1115073                       # Number of write requests accepted
system.mem_ctrls.readBursts                   6552198                       # Number of DRAM read bursts, including those serviced by the write queue
system.mem_ctrls.writeBursts                  1115073                       # Number of DRAM write bursts, including those merged in the write queue
system.mem_ctrls.bytesReadDRAM              418563584                       # Total number of bytes read from DRAM
system.mem_ctrls.bytesReadWrQ                  777088                       # Total number of bytes read from write queue
system.mem_ctrls.bytesWritten                71360128                       # Total number of bytes written to DRAM
system.mem_ctrls.bytesReadSys               419340672                       # Total read bytes from the system interface side
system.mem_ctrls.bytesWrittenSys             71364672                       # Total written bytes from the system interface side
system.mem_ctrls.servicedByWrQ                  12142                       # Number of DRAM read bursts serviced by the write queue
system.mem_ctrls.mergedWrBursts                    45                       # Number of DRAM write bursts merged with an existing one
system.mem_ctrls.neitherReadNorWriteReqs      5420218                       # Number of requests that are neither read nor write
system.mem_ctrls.perBankRdBursts::0            421250                       # Per bank write bursts
system.mem_ctrls.perBankRdBursts::1            402160                       # Per bank write bursts
system.mem_ctrls.perBankRdBursts::2            404609                       # Per bank write bursts
system.mem_ctrls.perBankRdBursts::3            424852                       # Per bank write bursts
system.mem_ctrls.perBankRdBursts::4            397735                       # Per bank write bursts
system.mem_ctrls.perBankRdBursts::5            399761                       # Per bank write bursts
system.mem_ctrls.perBankRdBursts::6            409477                       # Per bank write bursts
system.mem_ctrls.perBankRdBursts::7            397587                       # Per bank write bursts
system.mem_ctrls.perBankRdBursts::8            401613                       # Per bank write bursts
system.mem_ctrls.perBankRdBursts::9            400355                       # Per bank write bursts
system.mem_ctrls.perBankRdBursts::10           402001                       # Per bank write bursts
system.mem_ctrls.perBankRdBursts::11           407115                       # Per bank write bursts
system.mem_ctrls.perBankRdBursts::12           417923                       # Per bank write bursts
system.mem_ctrls.perBankRdBursts::13           421082                       # Per bank write bursts
system.mem_ctrls.perBankRdBursts::14           414869                       # Per bank write bursts
system.mem_ctrls.perBankRdBursts::15           417667                       # Per bank write bursts
system.mem_ctrls.perBankWrBursts::0             71851                       # Per bank write bursts
system.mem_ctrls.perBankWrBursts::1             71029                       # Per bank write bursts
system.mem_ctrls.perBankWrBursts::2             71283                       # Per bank write bursts
system.mem_ctrls.perBankWrBursts::3             75522                       # Per bank write bursts
system.mem_ctrls.perBankWrBursts::4             68940                       # Per bank write bursts
system.mem_ctrls.perBankWrBursts::5             66275                       # Per bank write bursts
system.mem_ctrls.perBankWrBursts::6             69193                       # Per bank write bursts
system.mem_ctrls.perBankWrBursts::7             65842                       # Per bank write bursts
system.mem_ctrls.perBankWrBursts::8             66995                       # Per bank write bursts
system.mem_ctrls.perBankWrBursts::9             65600                       # Per bank write bursts
system.mem_ctrls.perBankWrBursts::10            66003                       # Per bank write bursts
system.mem_ctrls.perBankWrBursts::11            69659                       # Per bank write bursts
system.mem_ctrls.perBankWrBursts::12            71878                       # Per bank write bursts
system.mem_ctrls.perBankWrBursts::13            71963                       # Per bank write bursts
system.mem_ctrls.perBankWrBursts::14            71424                       # Per bank write bursts
system.mem_ctrls.perBankWrBursts::15            71545                       # Per bank write bursts
system.mem_ctrls.numRdRetry                         0                       # Number of times read queue was full causing retry
system.mem_ctrls.numWrRetry                         0                       # Number of times write queue was full causing retry
system.mem_ctrls.totGap                  1625254920500                       # Total gap between requests
system.mem_ctrls.readPktSize::0                     0                       # Read request sizes (log2)
system.mem_ctrls.readPktSize::1                     0                       # Read request sizes (log2)
system.mem_ctrls.readPktSize::2                     0                       # Read request sizes (log2)
system.mem_ctrls.readPktSize::3                     0                       # Read request sizes (log2)
system.mem_ctrls.readPktSize::4                     0                       # Read request sizes (log2)
system.mem_ctrls.readPktSize::5                     0                       # Read request sizes (log2)
system.mem_ctrls.readPktSize::6               6552198                       # Read request sizes (log2)
system.mem_ctrls.writePktSize::0                    0                       # Write request sizes (log2)
system.mem_ctrls.writePktSize::1                    0                       # Write request sizes (log2)
system.mem_ctrls.writePktSize::2                    0                       # Write request sizes (log2)
system.mem_ctrls.writePktSize::3                    0                       # Write request sizes (log2)
system.mem_ctrls.writePktSize::4                    0                       # Write request sizes (log2)
system.mem_ctrls.writePktSize::5                    0                       # Write request sizes (log2)
system.mem_ctrls.writePktSize::6              1115073                       # Write request sizes (log2)
system.mem_ctrls.rdQLenPdf::0                 6540056                       # What read queue length does an incoming req see
system.mem_ctrls.rdQLenPdf::1                       0                       # What read queue length does an incoming req see
system.mem_ctrls.rdQLenPdf::2                       0                       # What read queue length does an incoming req see
system.mem_ctrls.rdQLenPdf::3                       0                       # What read queue length does an incoming req see
system.mem_ctrls.rdQLenPdf::4                       0                       # What read queue length does an incoming req see
system.mem_ctrls.rdQLenPdf::5                       0                       # What read queue length does an incoming req see
system.mem_ctrls.rdQLenPdf::6                       0                       # What read queue length does an incoming req see
system.mem_ctrls.rdQLenPdf::7                       0                       # What read queue length does an incoming req see
system.mem_ctrls.rdQLenPdf::8                       0                       # What read queue length does an incoming req see
system.mem_ctrls.rdQLenPdf::9                       0                       # What read queue length does an incoming req see
system.mem_ctrls.rdQLenPdf::10                      0                       # What read queue length does an incoming req see
system.mem_ctrls.rdQLenPdf::11                      0                       # What read queue length does an incoming req see
system.mem_ctrls.rdQLenPdf::12                      0                       # What read queue length does an incoming req see
system.mem_ctrls.rdQLenPdf::13                      0                       # What read queue length does an incoming req see
system.mem_ctrls.rdQLenPdf::14                      0                       # What read queue length does an incoming req see
system.mem_ctrls.rdQLenPdf::15                      0                       # What read queue length does an incoming req see
system.mem_ctrls.rdQLenPdf::16                      0                       # What read queue length does an incoming req see
system.mem_ctrls.rdQLenPdf::17                      0                       # What read queue length does an incoming req see
system.mem_ctrls.rdQLenPdf::18                      0                       # What read queue length does an incoming req see
system.mem_ctrls.rdQLenPdf::19                      0                       # What read queue length does an incoming req see
system.mem_ctrls.rdQLenPdf::20                      0                       # What read queue length does an incoming req see
system.mem_ctrls.rdQLenPdf::21                      0                       # What read queue length does an incoming req see
system.mem_ctrls.rdQLenPdf::22                      0                       # What read queue length does an incoming req see
system.mem_ctrls.rdQLenPdf::23                      0                       # What read queue length does an incoming req see
system.mem_ctrls.rdQLenPdf::24                      0                       # What read queue length does an incoming req see
system.mem_ctrls.rdQLenPdf::25                      0                       # What read queue length does an incoming req see
system.mem_ctrls.rdQLenPdf::26                      0                       # What read queue length does an incoming req see
system.mem_ctrls.rdQLenPdf::27                      0                       # What read queue length does an incoming req see
system.mem_ctrls.rdQLenPdf::28                      0                       # What read queue length does an incoming req see
system.mem_ctrls.rdQLenPdf::29                      0                       # What read queue length does an incoming req see
system.mem_ctrls.rdQLenPdf::30                      0                       # What read queue length does an incoming req see
system.mem_ctrls.rdQLenPdf::31                      0                       # What read queue length does an incoming req see
system.mem_ctrls.wrQLenPdf::0                       1                       # What write queue length does an incoming req see
system.mem_ctrls.wrQLenPdf::1                       1                       # What write queue length does an incoming req see
system.mem_ctrls.wrQLenPdf::2                       1                       # What write queue length does an incoming req see
system.mem_ctrls.wrQLenPdf::3                       1                       # What write queue length does an incoming req see
system.mem_ctrls.wrQLenPdf::4                       1                       # What write queue length does an incoming req see
system.mem_ctrls.wrQLenPdf::5                       1                       # What write queue length does an incoming req see
system.mem_ctrls.wrQLenPdf::6                       1                       # What write queue length does an incoming req see
system.mem_ctrls.wrQLenPdf::7                       1                       # What write queue length does an incoming req see
system.mem_ctrls.wrQLenPdf::8                       1                       # What write queue length does an incoming req see
system.mem_ctrls.wrQLenPdf::9                       1                       # What write queue length does an incoming req see
system.mem_ctrls.wrQLenPdf::10                      1                       # What write queue length does an incoming req see
system.mem_ctrls.wrQLenPdf::11                      1                       # What write queue length does an incoming req see
system.mem_ctrls.wrQLenPdf::12                      1                       # What write queue length does an incoming req see
system.mem_ctrls.wrQLenPdf::13                      1                       # What write queue length does an incoming req see
system.mem_ctrls.wrQLenPdf::14                      1                       # What write queue length does an incoming req see
system.mem_ctrls.wrQLenPdf::15                  33225                       # What write queue length does an incoming req see
system.mem_ctrls.wrQLenPdf::16                  34648                       # What write queue length does an incoming req see
system.mem_ctrls.wrQLenPdf::17                  65352                       # What write queue length does an incoming req see
system.mem_ctrls.wrQLenPdf::18                  65457                       # What write queue length does an incoming req see
system.mem_ctrls.wrQLenPdf::19                  65445                       # What write queue length does an incoming req see
system.mem_ctrls.wrQLenPdf::20                  65450                       # What write queue length does an incoming req see
system.mem_ctrls.wrQLenPdf::21                  65425                       # What write queue length does an incoming req see
system.mem_ctrls.wrQLenPdf::22                  65427                       # What write queue length does an incoming req see
system.mem_ctrls.wrQLenPdf::23                  65430                       # What write queue length does an incoming req see
system.mem_ctrls.wrQLenPdf::24                  65427                       # What write queue length does an incoming req see
system.mem_ctrls.wrQLenPdf::25                  65454                       # What write queue length does an incoming req see
system.mem_ctrls.wrQLenPdf::26                  65438                       # What write queue length does an incoming req see
system.mem_ctrls.wrQLenPdf::27                  65493                       # What write queue length does an incoming req see
system.mem_ctrls.wrQLenPdf::28                  65558                       # What write queue length does an incoming req see
system.mem_ctrls.wrQLenPdf::29                  65466                       # What write queue length does an incoming req see
system.mem_ctrls.wrQLenPdf::30                  65485                       # What write queue length does an incoming req see
system.mem_ctrls.wrQLenPdf::31                  65417                       # What write queue length does an incoming req see
system.mem_ctrls.wrQLenPdf::32                  65412                       # What write queue length does an incoming req see
system.mem_ctrls.wrQLenPdf::33                      4                       # What write queue length does an incoming req see
system.mem_ctrls.wrQLenPdf::34                      0                       # What write queue length does an incoming req see
system.mem_ctrls.wrQLenPdf::35                      0                       # What write queue length does an incoming req see
system.mem_ctrls.wrQLenPdf::36                      0                       # What write queue length does an incoming req see
system.mem_ctrls.wrQLenPdf::37                      0                       # What write queue length does an incoming req see
system.mem_ctrls.wrQLenPdf::38                      0                       # What write queue length does an incoming req see
system.mem_ctrls.wrQLenPdf::39                      0                       # What write queue length does an incoming req see
system.mem_ctrls.wrQLenPdf::40                      0                       # What write queue length does an incoming req see
system.mem_ctrls.wrQLenPdf::41                      0                       # What write queue length does an incoming req see
system.mem_ctrls.wrQLenPdf::42                      0                       # What write queue length does an incoming req see
system.mem_ctrls.wrQLenPdf::43                      0                       # What write queue length does an incoming req see
system.mem_ctrls.wrQLenPdf::44                      0                       # What write queue length does an incoming req see
system.mem_ctrls.wrQLenPdf::45                      0                       # What write queue length does an incoming req see
system.mem_ctrls.wrQLenPdf::46                      0                       # What write queue length does an incoming req see
system.mem_ctrls.wrQLenPdf::47                      0                       # What write queue length does an incoming req see
system.mem_ctrls.wrQLenPdf::48                      0                       # What write queue length does an incoming req see
system.mem_ctrls.wrQLenPdf::49                      0                       # What write queue length does an incoming req see
system.mem_ctrls.wrQLenPdf::50                      0                       # What write queue length does an incoming req see
system.mem_ctrls.wrQLenPdf::51                      0                       # What write queue length does an incoming req see
system.mem_ctrls.wrQLenPdf::52                      0                       # What write queue length does an incoming req see
system.mem_ctrls.wrQLenPdf::53                      0                       # What write queue length does an incoming req see
system.mem_ctrls.wrQLenPdf::54                      0                       # What write queue length does an incoming req see
system.mem_ctrls.wrQLenPdf::55                      0                       # What write queue length does an incoming req see
system.mem_ctrls.wrQLenPdf::56                      0                       # What write queue length does an incoming req see
system.mem_ctrls.wrQLenPdf::57                      0                       # What write queue length does an incoming req see
system.mem_ctrls.wrQLenPdf::58                      0                       # What write queue length does an incoming req see
system.mem_ctrls.wrQLenPdf::59                      0                       # What write queue length does an incoming req see
system.mem_ctrls.wrQLenPdf::60                      0                       # What write queue length does an incoming req see
system.mem_ctrls.wrQLenPdf::61                      0                       # What write queue length does an incoming req see
system.mem_ctrls.wrQLenPdf::62                      0                       # What write queue length does an incoming req see
system.mem_ctrls.wrQLenPdf::63                      0                       # What write queue length does an incoming req see
system.mem_ctrls.bytesPerActivate::samples      5822947                       # Bytes accessed per row activation
system.mem_ctrls.bytesPerActivate::mean     84.136729                       # Bytes accessed per row activation
system.mem_ctrls.bytesPerActivate::gmean    71.020614                       # Bytes accessed per row activation
system.mem_ctrls.bytesPerActivate::stdev   109.585036                       # Bytes accessed per row activation
system.mem_ctrls.bytesPerActivate::0-127      5299403     91.01%     91.01% # Bytes accessed per row activation
system.mem_ctrls.bytesPerActivate::128-255       383695      6.59%     97.60% # Bytes accessed per row activation
system.mem_ctrls.bytesPerActivate::256-383        31223      0.54%     98.13% # Bytes accessed per row activation
system.mem_ctrls.bytesPerActivate::384-511        15312      0.26%     98.40% # Bytes accessed per row activation
system.mem_ctrls.bytesPerActivate::512-639        10694      0.18%     98.58% # Bytes accessed per row activation
system.mem_ctrls.bytesPerActivate::640-767        10380      0.18%     98.76% # Bytes accessed per row activation
system.mem_ctrls.bytesPerActivate::768-895        12153      0.21%     98.97% # Bytes accessed per row activation
system.mem_ctrls.bytesPerActivate::896-1023         8375      0.14%     99.11% # Bytes accessed per row activation
system.mem_ctrls.bytesPerActivate::1024-1151        51712      0.89%    100.00% # Bytes accessed per row activation
system.mem_ctrls.bytesPerActivate::total      5822947                       # Bytes accessed per row activation
system.mem_ctrls.rdPerTurnAround::samples        65412                       # Reads before turning the bus around for writes
system.mem_ctrls.rdPerTurnAround::mean      99.982113                       # Reads before turning the bus around for writes
system.mem_ctrls.rdPerTurnAround::gmean     56.411529                       # Reads before turning the bus around for writes
system.mem_ctrls.rdPerTurnAround::stdev    145.957461                       # Reads before turning the bus around for writes
system.mem_ctrls.rdPerTurnAround::0-255         57646     88.13%     88.13% # Reads before turning the bus around for writes
system.mem_ctrls.rdPerTurnAround::256-511         6966     10.65%     98.78% # Reads before turning the bus around for writes
system.mem_ctrls.rdPerTurnAround::512-767          439      0.67%     99.45% # Reads before turning the bus around for writes
system.mem_ctrls.rdPerTurnAround::768-1023          166      0.25%     99.70% # Reads before turning the bus around for writes
system.mem_ctrls.rdPerTurnAround::1024-1279           85      0.13%     99.83% # Reads before turning the bus around for writes
system.mem_ctrls.rdPerTurnAround::1280-1535           41      0.06%     99.89% # Reads before turning the bus around for writes
system.mem_ctrls.rdPerTurnAround::1536-1791           24      0.04%     99.93% # Reads before turning the bus around for writes
system.mem_ctrls.rdPerTurnAround::1792-2047           19      0.03%     99.96% # Reads before turning the bus around for writes
system.mem_ctrls.rdPerTurnAround::2048-2303            8      0.01%     99.97% # Reads before turning the bus around for writes
system.mem_ctrls.rdPerTurnAround::2304-2559            8      0.01%     99.98% # Reads before turning the bus around for writes
system.mem_ctrls.rdPerTurnAround::2560-2815            4      0.01%     99.99% # Reads before turning the bus around for writes
system.mem_ctrls.rdPerTurnAround::2816-3071            1      0.00%     99.99% # Reads before turning the bus around for writes
system.mem_ctrls.rdPerTurnAround::3072-3327            1      0.00%     99.99% # Reads before turning the bus around for writes
system.mem_ctrls.rdPerTurnAround::3328-3583            1      0.00%    100.00% # Reads before turning the bus around for writes
system.mem_ctrls.rdPerTurnAround::3584-3839            1      0.00%    100.00% # Reads before turning the bus around for writes
system.mem_ctrls.rdPerTurnAround::4352-4607            1      0.00%    100.00% # Reads before turning the bus around for writes
system.mem_ctrls.rdPerTurnAround::5120-5375            1      0.00%    100.00% # Reads before turning the bus around for writes
system.mem_ctrls.rdPerTurnAround::total         65412                       # Reads before turning the bus around for writes
system.mem_ctrls.wrPerTurnAround::samples        65412                       # Writes before turning the bus around for reads
system.mem_ctrls.wrPerTurnAround::mean      17.045833                       # Writes before turning the bus around for reads
system.mem_ctrls.wrPerTurnAround::gmean     17.016484                       # Writes before turning the bus around for reads
system.mem_ctrls.wrPerTurnAround::stdev      0.998819                       # Writes before turning the bus around for reads
system.mem_ctrls.wrPerTurnAround::16            30742     47.00%     47.00% # Writes before turning the bus around for reads
system.mem_ctrls.wrPerTurnAround::17             1376      2.10%     49.10% # Writes before turning the bus around for reads
system.mem_ctrls.wrPerTurnAround::18            32858     50.23%     99.33% # Writes before turning the bus around for reads
system.mem_ctrls.wrPerTurnAround::19              426      0.65%     99.98% # Writes before turning the bus around for reads
system.mem_ctrls.wrPerTurnAround::20               10      0.02%    100.00% # Writes before turning the bus around for reads
system.mem_ctrls.wrPerTurnAround::total         65412                       # Writes before turning the bus around for reads
system.mem_ctrls.totQLat                 149608796500                       # Total ticks spent queuing
system.mem_ctrls.totMemAccLat            272234846500                       # Total ticks spent from burst creation until serviced by the DRAM
system.mem_ctrls.totBusLat                32700280000                       # Total ticks spent in databus transfers
system.mem_ctrls.avgQLat                     22875.77                       # Average queueing delay per DRAM burst
system.mem_ctrls.avgBusLat                    5000.00                       # Average bus latency per DRAM burst
system.mem_ctrls.avgMemAccLat                41625.77                       # Average memory access latency per DRAM burst
system.mem_ctrls.avgRdBW                       257.53                       # Average DRAM read bandwidth in MiByte/s
system.mem_ctrls.avgWrBW                        43.91                       # Average achieved write bandwidth in MiByte/s
system.mem_ctrls.avgRdBWSys                    258.01                       # Average system read bandwidth in MiByte/s
system.mem_ctrls.avgWrBWSys                     43.91                       # Average system write bandwidth in MiByte/s
system.mem_ctrls.peakBW                      12800.00                       # Theoretical peak bandwidth in MiByte/s
system.mem_ctrls.busUtil                         2.36                       # Data bus utilization in percentage
system.mem_ctrls.busUtilRead                     2.01                       # Data bus utilization in percentage for reads
system.mem_ctrls.busUtilWrite                    0.34                       # Data bus utilization in percentage for writes
system.mem_ctrls.avgRdQLen                       1.00                       # Average read queue length when enqueuing
system.mem_ctrls.avgWrQLen                      24.84                       # Average write queue length when enqueuing
system.mem_ctrls.readRowHits                  1334351                       # Number of row buffer hits during reads
system.mem_ctrls.writeRowHits                  497760                       # Number of row buffer hits during writes
system.mem_ctrls.readRowHitRate                 20.40                       # Row buffer hit rate for reads
system.mem_ctrls.writeRowHitRate                44.64                       # Row buffer hit rate for writes
system.mem_ctrls.avgGap                     211973.06                       # Average gap between requests
system.mem_ctrls.pageHitRate                    23.93                       # Row buffer hit rate, read and write combined
system.mem_ctrls_0.actEnergy              21945152880                       # Energy for activate commands per rank (pJ)
system.mem_ctrls_0.preEnergy              11974041750                       # Energy for precharge commands per rank (pJ)
system.mem_ctrls_0.readEnergy             25407961800                       # Energy for read commands per rank (pJ)
system.mem_ctrls_0.writeEnergy             3628378800                       # Energy for write commands per rank (pJ)
system.mem_ctrls_0.refreshEnergy         106154780160                       # Energy for refresh commands per rank (pJ)
system.mem_ctrls_0.actBackEnergy         845878160610                       # Energy for active background per rank (pJ)
system.mem_ctrls_0.preBackEnergy         233164169250                       # Energy for precharge background per rank (pJ)
system.mem_ctrls_0.totalEnergy           1248152645250                       # Total energy per rank (pJ)
system.mem_ctrls_0.averagePower            767.965897                       # Core power per rank (mW)
system.mem_ctrls_0.memoryStateTime::IDLE 382769043500                       # Time in different power states
system.mem_ctrls_0.memoryStateTime::REF   54271360000                       # Time in different power states
system.mem_ctrls_0.memoryStateTime::PRE_PDN            0                       # Time in different power states
system.mem_ctrls_0.memoryStateTime::ACT  1188230536500                       # Time in different power states
system.mem_ctrls_0.memoryStateTime::ACT_PDN            0                       # Time in different power states
system.mem_ctrls_1.actEnergy              22076326440                       # Energy for activate commands per rank (pJ)
system.mem_ctrls_1.preEnergy              12045614625                       # Energy for precharge commands per rank (pJ)
system.mem_ctrls_1.readEnergy             25604475000                       # Energy for read commands per rank (pJ)
system.mem_ctrls_1.writeEnergy             3596834160                       # Energy for write commands per rank (pJ)
system.mem_ctrls_1.refreshEnergy         106154780160                       # Energy for refresh commands per rank (pJ)
system.mem_ctrls_1.actBackEnergy         844460386785                       # Energy for active background per rank (pJ)
system.mem_ctrls_1.preBackEnergy         234407830500                       # Energy for precharge background per rank (pJ)
system.mem_ctrls_1.totalEnergy           1248346247670                       # Total energy per rank (pJ)
system.mem_ctrls_1.averagePower            768.085017                       # Core power per rank (mW)
system.mem_ctrls_1.memoryStateTime::IDLE 384502548750                       # Time in different power states
system.mem_ctrls_1.memoryStateTime::REF   54271360000                       # Time in different power states
system.mem_ctrls_1.memoryStateTime::PRE_PDN            0                       # Time in different power states
system.mem_ctrls_1.memoryStateTime::ACT  1186497031250                       # Time in different power states
system.mem_ctrls_1.memoryStateTime::ACT_PDN            0                       # Time in different power states
system.cpu_voltage_domain.voltage                   1                       # Voltage in Volts
system.cpu_clk_domain.clock                       500                       # Clock period in ticks
system.cpu.apic_clk_domain.clock                 8000                       # Clock period in ticks
system.cpu.workload.num_syscalls                  168                       # Number of system calls
system.cpu.numCycles                       3250542617                       # number of cpu cycles simulated
system.cpu.numWorkItemsStarted                      0                       # number of work items this cpu started
system.cpu.numWorkItemsCompleted                    0                       # number of work items this cpu completed
system.cpu.committedInsts                   500000000                       # Number of instructions committed
system.cpu.committedOps                     876313787                       # Number of ops (including micro ops) committed
system.cpu.num_int_alu_accesses             872966684                       # Number of integer alu accesses
system.cpu.num_fp_alu_accesses                2882231                       # Number of float alu accesses
system.cpu.num_func_calls                    11025254                       # number of times a function call or return occured
system.cpu.num_conditional_control_insts     75981010                       # number of instructions that are conditional controls
system.cpu.num_int_insts                    872966684                       # number of integer instructions
system.cpu.num_fp_insts                       2882231                       # number of float instructions
system.cpu.num_int_register_reads          1835046968                       # number of times the integer registers were read
system.cpu.num_int_register_writes          703076421                       # number of times the integer registers were written
system.cpu.num_fp_register_reads              4386063                       # number of times the floating registers were read
system.cpu.num_fp_register_writes             2464405                       # number of times the floating registers were written
system.cpu.num_cc_register_reads            441654672                       # number of times the CC registers were read
system.cpu.num_cc_register_writes           253505512                       # number of times the CC registers were written
system.cpu.num_mem_refs                     293763601                       # number of memory refs
system.cpu.num_load_insts                   221285044                       # Number of load instructions
system.cpu.num_store_insts                   72478557                       # Number of store instructions
system.cpu.num_idle_cycles                          0                       # Number of idle cycles
system.cpu.num_busy_cycles                 3250542617                       # Number of busy cycles
system.cpu.not_idle_fraction                        1                       # Percentage of non-idle cycles
system.cpu.idle_fraction                            0                       # Percentage of idle cycles
system.cpu.Branches                          97901002                       # Number of branches fetched
system.cpu.op_class::No_OpClass                939429      0.11%      0.11% # Class of executed instruction
system.cpu.op_class::IntAlu                 578420256     66.01%     66.11% # Class of executed instruction
system.cpu.op_class::IntMult                   907073      0.10%     66.22% # Class of executed instruction
system.cpu.op_class::IntDiv                        42      0.00%     66.22% # Class of executed instruction
system.cpu.op_class::FloatAdd                 2283386      0.26%     66.48% # Class of executed instruction
system.cpu.op_class::FloatCmp                       0      0.00%     66.48% # Class of executed instruction
system.cpu.op_class::FloatCvt                       0      0.00%     66.48% # Class of executed instruction
system.cpu.op_class::FloatMult                      0      0.00%     66.48% # Class of executed instruction
system.cpu.op_class::FloatDiv                       0      0.00%     66.48% # Class of executed instruction
system.cpu.op_class::FloatSqrt                      0      0.00%     66.48% # Class of executed instruction
system.cpu.op_class::SimdAdd                        0      0.00%     66.48% # Class of executed instruction
system.cpu.op_class::SimdAddAcc                     0      0.00%     66.48% # Class of executed instruction
system.cpu.op_class::SimdAlu                        0      0.00%     66.48% # Class of executed instruction
system.cpu.op_class::SimdCmp                        0      0.00%     66.48% # Class of executed instruction
system.cpu.op_class::SimdCvt                        0      0.00%     66.48% # Class of executed instruction
system.cpu.op_class::SimdMisc                       0      0.00%     66.48% # Class of executed instruction
system.cpu.op_class::SimdMult                       0      0.00%     66.48% # Class of executed instruction
system.cpu.op_class::SimdMultAcc                    0      0.00%     66.48% # Class of executed instruction
system.cpu.op_class::SimdShift                      0      0.00%     66.48% # Class of executed instruction
system.cpu.op_class::SimdShiftAcc                   0      0.00%     66.48% # Class of executed instruction
system.cpu.op_class::SimdSqrt                       0      0.00%     66.48% # Class of executed instruction
system.cpu.op_class::SimdFloatAdd                   0      0.00%     66.48% # Class of executed instruction
system.cpu.op_class::SimdFloatAlu                   0      0.00%     66.48% # Class of executed instruction
system.cpu.op_class::SimdFloatCmp                   0      0.00%     66.48% # Class of executed instruction
system.cpu.op_class::SimdFloatCvt                   0      0.00%     66.48% # Class of executed instruction
system.cpu.op_class::SimdFloatDiv                   0      0.00%     66.48% # Class of executed instruction
system.cpu.op_class::SimdFloatMisc                  0      0.00%     66.48% # Class of executed instruction
system.cpu.op_class::SimdFloatMult                  0      0.00%     66.48% # Class of executed instruction
system.cpu.op_class::SimdFloatMultAcc               0      0.00%     66.48% # Class of executed instruction
system.cpu.op_class::SimdFloatSqrt                  0      0.00%     66.48% # Class of executed instruction
system.cpu.op_class::MemRead                221285044     25.25%     91.73% # Class of executed instruction
system.cpu.op_class::MemWrite                72478557      8.27%    100.00% # Class of executed instruction
system.cpu.op_class::IprAccess                      0      0.00%    100.00% # Class of executed instruction
system.cpu.op_class::InstPrefetch                   0      0.00%    100.00% # Class of executed instruction
system.cpu.op_class::total                  876313787                       # Class of executed instruction
system.cpu.dcache.tags.replacements          10223913                       # number of replacements
system.cpu.dcache.tags.tagsinuse          2047.307564                       # Cycle average of tags in use
system.cpu.dcache.tags.total_refs           283551768                       # Total number of references to valid blocks.
system.cpu.dcache.tags.sampled_refs          10225961                       # Sample count of references to valid blocks.
system.cpu.dcache.tags.avg_refs             27.728618                       # Average number of references to valid blocks.
system.cpu.dcache.tags.warmup_cycle        1262398500                       # Cycle when the warmup percentage was hit.
system.cpu.dcache.tags.occ_blocks::cpu.data  2047.307564                       # Average occupied blocks per requestor
system.cpu.dcache.tags.occ_percent::cpu.data     0.999662                       # Average percentage of cache occupancy
system.cpu.dcache.tags.occ_percent::total     0.999662                       # Average percentage of cache occupancy
system.cpu.dcache.tags.occ_task_id_blocks::1024         2048                       # Occupied blocks per task id
system.cpu.dcache.tags.age_task_id_blocks_1024::0            2                       # Occupied blocks per task id
system.cpu.dcache.tags.age_task_id_blocks_1024::1          605                       # Occupied blocks per task id
system.cpu.dcache.tags.age_task_id_blocks_1024::2         1249                       # Occupied blocks per task id
system.cpu.dcache.tags.age_task_id_blocks_1024::3          189                       # Occupied blocks per task id
system.cpu.dcache.tags.age_task_id_blocks_1024::4            3                       # Occupied blocks per task id
system.cpu.dcache.tags.occ_task_id_percent::1024            1                       # Percentage of cache occupancy per task id
system.cpu.dcache.tags.tag_accesses         597781419                       # Number of tag accesses
system.cpu.dcache.tags.data_accesses        597781419                       # Number of data accesses
system.cpu.dcache.ReadReq_hits::cpu.data    211414955                       # number of ReadReq hits
system.cpu.dcache.ReadReq_hits::total       211414955                       # number of ReadReq hits
system.cpu.dcache.WriteReq_hits::cpu.data     72136813                       # number of WriteReq hits
system.cpu.dcache.WriteReq_hits::total       72136813                       # number of WriteReq hits
system.cpu.dcache.demand_hits::cpu.data     283551768                       # number of demand (read+write) hits
system.cpu.dcache.demand_hits::total        283551768                       # number of demand (read+write) hits
system.cpu.dcache.overall_hits::cpu.data    283551768                       # number of overall hits
system.cpu.dcache.overall_hits::total       283551768                       # number of overall hits
system.cpu.dcache.ReadReq_misses::cpu.data      9884216                       # number of ReadReq misses
system.cpu.dcache.ReadReq_misses::total       9884216                       # number of ReadReq misses
system.cpu.dcache.WriteReq_misses::cpu.data       341745                       # number of WriteReq misses
system.cpu.dcache.WriteReq_misses::total       341745                       # number of WriteReq misses
system.cpu.dcache.demand_misses::cpu.data     10225961                       # number of demand (read+write) misses
system.cpu.dcache.demand_misses::total       10225961                       # number of demand (read+write) misses
system.cpu.dcache.overall_misses::cpu.data     10225961                       # number of overall misses
system.cpu.dcache.overall_misses::total      10225961                       # number of overall misses
system.cpu.dcache.ReadReq_miss_latency::cpu.data 645263866000                       # number of ReadReq miss cycles
system.cpu.dcache.ReadReq_miss_latency::total 645263866000                       # number of ReadReq miss cycles
system.cpu.dcache.WriteReq_miss_latency::cpu.data  19076745500                       # number of WriteReq miss cycles
system.cpu.dcache.WriteReq_miss_latency::total  19076745500                       # number of WriteReq miss cycles
system.cpu.dcache.demand_miss_latency::cpu.data 664340611500                       # number of demand (read+write) miss cycles
system.cpu.dcache.demand_miss_latency::total 664340611500                       # number of demand (read+write) miss cycles
system.cpu.dcache.overall_miss_latency::cpu.data 664340611500                       # number of overall miss cycles
system.cpu.dcache.overall_miss_latency::total 664340611500                       # number of overall miss cycles
system.cpu.dcache.ReadReq_accesses::cpu.data    221299171                       # number of ReadReq accesses(hits+misses)
system.cpu.dcache.ReadReq_accesses::total    221299171                       # number of ReadReq accesses(hits+misses)
system.cpu.dcache.WriteReq_accesses::cpu.data     72478558                       # number of WriteReq accesses(hits+misses)
system.cpu.dcache.WriteReq_accesses::total     72478558                       # number of WriteReq accesses(hits+misses)
system.cpu.dcache.demand_accesses::cpu.data    293777729                       # number of demand (read+write) accesses
system.cpu.dcache.demand_accesses::total    293777729                       # number of demand (read+write) accesses
system.cpu.dcache.overall_accesses::cpu.data    293777729                       # number of overall (read+write) accesses
system.cpu.dcache.overall_accesses::total    293777729                       # number of overall (read+write) accesses
system.cpu.dcache.ReadReq_miss_rate::cpu.data     0.044664                       # miss rate for ReadReq accesses
system.cpu.dcache.ReadReq_miss_rate::total     0.044664                       # miss rate for ReadReq accesses
system.cpu.dcache.WriteReq_miss_rate::cpu.data     0.004715                       # miss rate for WriteReq accesses
system.cpu.dcache.WriteReq_miss_rate::total     0.004715                       # miss rate for WriteReq accesses
system.cpu.dcache.demand_miss_rate::cpu.data     0.034808                       # miss rate for demand accesses
system.cpu.dcache.demand_miss_rate::total     0.034808                       # miss rate for demand accesses
system.cpu.dcache.overall_miss_rate::cpu.data     0.034808                       # miss rate for overall accesses
system.cpu.dcache.overall_miss_rate::total     0.034808                       # miss rate for overall accesses
system.cpu.dcache.ReadReq_avg_miss_latency::cpu.data 65282.250610                       # average ReadReq miss latency
system.cpu.dcache.ReadReq_avg_miss_latency::total 65282.250610                       # average ReadReq miss latency
system.cpu.dcache.WriteReq_avg_miss_latency::cpu.data 55821.578955                       # average WriteReq miss latency
system.cpu.dcache.WriteReq_avg_miss_latency::total 55821.578955                       # average WriteReq miss latency
system.cpu.dcache.demand_avg_miss_latency::cpu.data 64966.081085                       # average overall miss latency
system.cpu.dcache.demand_avg_miss_latency::total 64966.081085                       # average overall miss latency
system.cpu.dcache.overall_avg_miss_latency::cpu.data 64966.081085                       # average overall miss latency
system.cpu.dcache.overall_avg_miss_latency::total 64966.081085                       # average overall miss latency
system.cpu.dcache.blocked_cycles::no_mshrs            0                       # number of cycles access was blocked
system.cpu.dcache.blocked_cycles::no_targets            0                       # number of cycles access was blocked
system.cpu.dcache.blocked::no_mshrs                 0                       # number of cycles access was blocked
system.cpu.dcache.blocked::no_targets               0                       # number of cycles access was blocked
system.cpu.dcache.avg_blocked_cycles::no_mshrs          nan                       # average number of cycles each access was blocked
system.cpu.dcache.avg_blocked_cycles::no_targets          nan                       # average number of cycles each access was blocked
system.cpu.dcache.fast_writes                       0                       # number of fast writes performed
system.cpu.dcache.cache_copies                      0                       # number of cache copies performed
system.cpu.dcache.writebacks::writebacks      2508814                       # number of writebacks
system.cpu.dcache.writebacks::total           2508814                       # number of writebacks
system.cpu.dcache.ReadReq_mshr_misses::cpu.data      9884216                       # number of ReadReq MSHR misses
system.cpu.dcache.ReadReq_mshr_misses::total      9884216                       # number of ReadReq MSHR misses
system.cpu.dcache.WriteReq_mshr_misses::cpu.data       341745                       # number of WriteReq MSHR misses
system.cpu.dcache.WriteReq_mshr_misses::total       341745                       # number of WriteReq MSHR misses
system.cpu.dcache.demand_mshr_misses::cpu.data     10225961                       # number of demand (read+write) MSHR misses
system.cpu.dcache.demand_mshr_misses::total     10225961                       # number of demand (read+write) MSHR misses
system.cpu.dcache.overall_mshr_misses::cpu.data     10225961                       # number of overall MSHR misses
system.cpu.dcache.overall_mshr_misses::total     10225961                       # number of overall MSHR misses
system.cpu.dcache.ReadReq_mshr_miss_latency::cpu.data 635379650000                       # number of ReadReq MSHR miss cycles
system.cpu.dcache.ReadReq_mshr_miss_latency::total 635379650000                       # number of ReadReq MSHR miss cycles
system.cpu.dcache.WriteReq_mshr_miss_latency::cpu.data  18735000500                       # number of WriteReq MSHR miss cycles
system.cpu.dcache.WriteReq_mshr_miss_latency::total  18735000500                       # number of WriteReq MSHR miss cycles
system.cpu.dcache.demand_mshr_miss_latency::cpu.data 654114650500                       # number of demand (read+write) MSHR miss cycles
system.cpu.dcache.demand_mshr_miss_latency::total 654114650500                       # number of demand (read+write) MSHR miss cycles
system.cpu.dcache.overall_mshr_miss_latency::cpu.data 654114650500                       # number of overall MSHR miss cycles
system.cpu.dcache.overall_mshr_miss_latency::total 654114650500                       # number of overall MSHR miss cycles
system.cpu.dcache.ReadReq_mshr_miss_rate::cpu.data     0.044664                       # mshr miss rate for ReadReq accesses
system.cpu.dcache.ReadReq_mshr_miss_rate::total     0.044664                       # mshr miss rate for ReadReq accesses
system.cpu.dcache.WriteReq_mshr_miss_rate::cpu.data     0.004715                       # mshr miss rate for WriteReq accesses
system.cpu.dcache.WriteReq_mshr_miss_rate::total     0.004715                       # mshr miss rate for WriteReq accesses
system.cpu.dcache.demand_mshr_miss_rate::cpu.data     0.034808                       # mshr miss rate for demand accesses
system.cpu.dcache.demand_mshr_miss_rate::total     0.034808                       # mshr miss rate for demand accesses
system.cpu.dcache.overall_mshr_miss_rate::cpu.data     0.034808                       # mshr miss rate for overall accesses
system.cpu.dcache.overall_mshr_miss_rate::total     0.034808                       # mshr miss rate for overall accesses
system.cpu.dcache.ReadReq_avg_mshr_miss_latency::cpu.data 64282.250610                       # average ReadReq mshr miss latency
system.cpu.dcache.ReadReq_avg_mshr_miss_latency::total 64282.250610                       # average ReadReq mshr miss latency
system.cpu.dcache.WriteReq_avg_mshr_miss_latency::cpu.data 54821.578955                       # average WriteReq mshr miss latency
system.cpu.dcache.WriteReq_avg_mshr_miss_latency::total 54821.578955                       # average WriteReq mshr miss latency
system.cpu.dcache.demand_avg_mshr_miss_latency::cpu.data 63966.081085                       # average overall mshr miss latency
system.cpu.dcache.demand_avg_mshr_miss_latency::total 63966.081085                       # average overall mshr miss latency
system.cpu.dcache.overall_avg_mshr_miss_latency::cpu.data 63966.081085                       # average overall mshr miss latency
system.cpu.dcache.overall_avg_mshr_miss_latency::total 63966.081085                       # average overall mshr miss latency
system.cpu.dcache.no_allocate_misses                0                       # Number of misses that were no-allocate
system.cpu.dtb_walker_cache.tags.replacements            0                       # number of replacements
system.cpu.dtb_walker_cache.tags.tagsinuse            0                       # Cycle average of tags in use
system.cpu.dtb_walker_cache.tags.total_refs            0                       # Total number of references to valid blocks.
system.cpu.dtb_walker_cache.tags.sampled_refs            0                       # Sample count of references to valid blocks.
system.cpu.dtb_walker_cache.tags.avg_refs          nan                       # Average number of references to valid blocks.
system.cpu.dtb_walker_cache.tags.warmup_cycle            0                       # Cycle when the warmup percentage was hit.
system.cpu.dtb_walker_cache.tags.tag_accesses            0                       # Number of tag accesses
system.cpu.dtb_walker_cache.tags.data_accesses            0                       # Number of data accesses
system.cpu.dtb_walker_cache.blocked_cycles::no_mshrs            0                       # number of cycles access was blocked
system.cpu.dtb_walker_cache.blocked_cycles::no_targets            0                       # number of cycles access was blocked
system.cpu.dtb_walker_cache.blocked::no_mshrs            0                       # number of cycles access was blocked
system.cpu.dtb_walker_cache.blocked::no_targets            0                       # number of cycles access was blocked
system.cpu.dtb_walker_cache.avg_blocked_cycles::no_mshrs          nan                       # average number of cycles each access was blocked
system.cpu.dtb_walker_cache.avg_blocked_cycles::no_targets          nan                       # average number of cycles each access was blocked
system.cpu.dtb_walker_cache.fast_writes             0                       # number of fast writes performed
system.cpu.dtb_walker_cache.cache_copies            0                       # number of cache copies performed
system.cpu.dtb_walker_cache.no_allocate_misses            0                       # Number of misses that were no-allocate
system.cpu.icache.tags.replacements              1080                       # number of replacements
system.cpu.icache.tags.tagsinuse           430.457181                       # Cycle average of tags in use
system.cpu.icache.tags.total_refs           677316425                       # Total number of references to valid blocks.
system.cpu.icache.tags.sampled_refs              1521                       # Sample count of references to valid blocks.
system.cpu.icache.tags.avg_refs          445309.944116                       # Average number of references to valid blocks.
system.cpu.icache.tags.warmup_cycle                 0                       # Cycle when the warmup percentage was hit.
system.cpu.icache.tags.occ_blocks::cpu.inst   430.457181                       # Average occupied blocks per requestor
system.cpu.icache.tags.occ_percent::cpu.inst     0.840737                       # Average percentage of cache occupancy
system.cpu.icache.tags.occ_percent::total     0.840737                       # Average percentage of cache occupancy
system.cpu.icache.tags.occ_task_id_blocks::1024          441                       # Occupied blocks per task id
system.cpu.icache.tags.age_task_id_blocks_1024::4          441                       # Occupied blocks per task id
system.cpu.icache.tags.occ_task_id_percent::1024     0.861328                       # Percentage of cache occupancy per task id
system.cpu.icache.tags.tag_accesses        1354637413                       # Number of tag accesses
system.cpu.icache.tags.data_accesses       1354637413                       # Number of data accesses
system.cpu.icache.ReadReq_hits::cpu.inst    677316425                       # number of ReadReq hits
system.cpu.icache.ReadReq_hits::total       677316425                       # number of ReadReq hits
system.cpu.icache.demand_hits::cpu.inst     677316425                       # number of demand (read+write) hits
system.cpu.icache.demand_hits::total        677316425                       # number of demand (read+write) hits
system.cpu.icache.overall_hits::cpu.inst    677316425                       # number of overall hits
system.cpu.icache.overall_hits::total       677316425                       # number of overall hits
system.cpu.icache.ReadReq_misses::cpu.inst         1521                       # number of ReadReq misses
system.cpu.icache.ReadReq_misses::total          1521                       # number of ReadReq misses
system.cpu.icache.demand_misses::cpu.inst         1521                       # number of demand (read+write) misses
system.cpu.icache.demand_misses::total           1521                       # number of demand (read+write) misses
system.cpu.icache.overall_misses::cpu.inst         1521                       # number of overall misses
system.cpu.icache.overall_misses::total          1521                       # number of overall misses
system.cpu.icache.ReadReq_miss_latency::cpu.inst     69570500                       # number of ReadReq miss cycles
system.cpu.icache.ReadReq_miss_latency::total     69570500                       # number of ReadReq miss cycles
system.cpu.icache.demand_miss_latency::cpu.inst     69570500                       # number of demand (read+write) miss cycles
system.cpu.icache.demand_miss_latency::total     69570500                       # number of demand (read+write) miss cycles
system.cpu.icache.overall_miss_latency::cpu.inst     69570500                       # number of overall miss cycles
system.cpu.icache.overall_miss_latency::total     69570500                       # number of overall miss cycles
system.cpu.icache.ReadReq_accesses::cpu.inst    677317946                       # number of ReadReq accesses(hits+misses)
system.cpu.icache.ReadReq_accesses::total    677317946                       # number of ReadReq accesses(hits+misses)
system.cpu.icache.demand_accesses::cpu.inst    677317946                       # number of demand (read+write) accesses
system.cpu.icache.demand_accesses::total    677317946                       # number of demand (read+write) accesses
system.cpu.icache.overall_accesses::cpu.inst    677317946                       # number of overall (read+write) accesses
system.cpu.icache.overall_accesses::total    677317946                       # number of overall (read+write) accesses
system.cpu.icache.ReadReq_miss_rate::cpu.inst     0.000002                       # miss rate for ReadReq accesses
system.cpu.icache.ReadReq_miss_rate::total     0.000002                       # miss rate for ReadReq accesses
system.cpu.icache.demand_miss_rate::cpu.inst     0.000002                       # miss rate for demand accesses
system.cpu.icache.demand_miss_rate::total     0.000002                       # miss rate for demand accesses
system.cpu.icache.overall_miss_rate::cpu.inst     0.000002                       # miss rate for overall accesses
system.cpu.icache.overall_miss_rate::total     0.000002                       # miss rate for overall accesses
system.cpu.icache.ReadReq_avg_miss_latency::cpu.inst 45739.973702                       # average ReadReq miss latency
system.cpu.icache.ReadReq_avg_miss_latency::total 45739.973702                       # average ReadReq miss latency
system.cpu.icache.demand_avg_miss_latency::cpu.inst 45739.973702                       # average overall miss latency
system.cpu.icache.demand_avg_miss_latency::total 45739.973702                       # average overall miss latency
system.cpu.icache.overall_avg_miss_latency::cpu.inst 45739.973702                       # average overall miss latency
system.cpu.icache.overall_avg_miss_latency::total 45739.973702                       # average overall miss latency
system.cpu.icache.blocked_cycles::no_mshrs            0                       # number of cycles access was blocked
system.cpu.icache.blocked_cycles::no_targets            0                       # number of cycles access was blocked
system.cpu.icache.blocked::no_mshrs                 0                       # number of cycles access was blocked
system.cpu.icache.blocked::no_targets               0                       # number of cycles access was blocked
system.cpu.icache.avg_blocked_cycles::no_mshrs          nan                       # average number of cycles each access was blocked
system.cpu.icache.avg_blocked_cycles::no_targets          nan                       # average number of cycles each access was blocked
system.cpu.icache.fast_writes                       0                       # number of fast writes performed
system.cpu.icache.cache_copies                      0                       # number of cache copies performed
system.cpu.icache.writebacks::writebacks         1080                       # number of writebacks
system.cpu.icache.writebacks::total              1080                       # number of writebacks
system.cpu.icache.ReadReq_mshr_misses::cpu.inst         1521                       # number of ReadReq MSHR misses
system.cpu.icache.ReadReq_mshr_misses::total         1521                       # number of ReadReq MSHR misses
system.cpu.icache.demand_mshr_misses::cpu.inst         1521                       # number of demand (read+write) MSHR misses
system.cpu.icache.demand_mshr_misses::total         1521                       # number of demand (read+write) MSHR misses
system.cpu.icache.overall_mshr_misses::cpu.inst         1521                       # number of overall MSHR misses
system.cpu.icache.overall_mshr_misses::total         1521                       # number of overall MSHR misses
system.cpu.icache.ReadReq_mshr_miss_latency::cpu.inst     68049500                       # number of ReadReq MSHR miss cycles
system.cpu.icache.ReadReq_mshr_miss_latency::total     68049500                       # number of ReadReq MSHR miss cycles
system.cpu.icache.demand_mshr_miss_latency::cpu.inst     68049500                       # number of demand (read+write) MSHR miss cycles
system.cpu.icache.demand_mshr_miss_latency::total     68049500                       # number of demand (read+write) MSHR miss cycles
system.cpu.icache.overall_mshr_miss_latency::cpu.inst     68049500                       # number of overall MSHR miss cycles
system.cpu.icache.overall_mshr_miss_latency::total     68049500                       # number of overall MSHR miss cycles
system.cpu.icache.ReadReq_mshr_miss_rate::cpu.inst     0.000002                       # mshr miss rate for ReadReq accesses
system.cpu.icache.ReadReq_mshr_miss_rate::total     0.000002                       # mshr miss rate for ReadReq accesses
system.cpu.icache.demand_mshr_miss_rate::cpu.inst     0.000002                       # mshr miss rate for demand accesses
system.cpu.icache.demand_mshr_miss_rate::total     0.000002                       # mshr miss rate for demand accesses
system.cpu.icache.overall_mshr_miss_rate::cpu.inst     0.000002                       # mshr miss rate for overall accesses
system.cpu.icache.overall_mshr_miss_rate::total     0.000002                       # mshr miss rate for overall accesses
system.cpu.icache.ReadReq_avg_mshr_miss_latency::cpu.inst 44739.973702                       # average ReadReq mshr miss latency
system.cpu.icache.ReadReq_avg_mshr_miss_latency::total 44739.973702                       # average ReadReq mshr miss latency
system.cpu.icache.demand_avg_mshr_miss_latency::cpu.inst 44739.973702                       # average overall mshr miss latency
system.cpu.icache.demand_avg_mshr_miss_latency::total 44739.973702                       # average overall mshr miss latency
system.cpu.icache.overall_avg_mshr_miss_latency::cpu.inst 44739.973702                       # average overall mshr miss latency
system.cpu.icache.overall_avg_mshr_miss_latency::total 44739.973702                       # average overall mshr miss latency
system.cpu.icache.no_allocate_misses                0                       # Number of misses that were no-allocate
system.cpu.itb_walker_cache.tags.replacements            0                       # number of replacements
system.cpu.itb_walker_cache.tags.tagsinuse            0                       # Cycle average of tags in use
system.cpu.itb_walker_cache.tags.total_refs            0                       # Total number of references to valid blocks.
system.cpu.itb_walker_cache.tags.sampled_refs            0                       # Sample count of references to valid blocks.
system.cpu.itb_walker_cache.tags.avg_refs          nan                       # Average number of references to valid blocks.
system.cpu.itb_walker_cache.tags.warmup_cycle            0                       # Cycle when the warmup percentage was hit.
system.cpu.itb_walker_cache.tags.tag_accesses            0                       # Number of tag accesses
system.cpu.itb_walker_cache.tags.data_accesses            0                       # Number of data accesses
system.cpu.itb_walker_cache.blocked_cycles::no_mshrs            0                       # number of cycles access was blocked
system.cpu.itb_walker_cache.blocked_cycles::no_targets            0                       # number of cycles access was blocked
system.cpu.itb_walker_cache.blocked::no_mshrs            0                       # number of cycles access was blocked
system.cpu.itb_walker_cache.blocked::no_targets            0                       # number of cycles access was blocked
system.cpu.itb_walker_cache.avg_blocked_cycles::no_mshrs          nan                       # average number of cycles each access was blocked
system.cpu.itb_walker_cache.avg_blocked_cycles::no_targets          nan                       # average number of cycles each access was blocked
system.cpu.itb_walker_cache.fast_writes             0                       # number of fast writes performed
system.cpu.itb_walker_cache.cache_copies            0                       # number of cache copies performed
system.cpu.itb_walker_cache.no_allocate_misses            0                       # Number of misses that were no-allocate
system.l2.tags.replacements                   6717384                       # number of replacements
system.l2.tags.tagsinuse                 15988.178547                       # Cycle average of tags in use
system.l2.tags.total_refs                    12662437                       # Total number of references to valid blocks.
system.l2.tags.sampled_refs                   6733711                       # Sample count of references to valid blocks.
system.l2.tags.avg_refs                      1.880454                       # Average number of references to valid blocks.
system.l2.tags.warmup_cycle              330295408500                       # Cycle when the warmup percentage was hit.
system.l2.tags.occ_blocks::writebacks     3316.535165                       # Average occupied blocks per requestor
system.l2.tags.occ_blocks::cpu.inst          1.991680                       # Average occupied blocks per requestor
system.l2.tags.occ_blocks::cpu.data      12669.651702                       # Average occupied blocks per requestor
system.l2.tags.occ_percent::writebacks       0.202425                       # Average percentage of cache occupancy
system.l2.tags.occ_percent::cpu.inst         0.000122                       # Average percentage of cache occupancy
system.l2.tags.occ_percent::cpu.data         0.773294                       # Average percentage of cache occupancy
system.l2.tags.occ_percent::total            0.975841                       # Average percentage of cache occupancy
system.l2.tags.occ_task_id_blocks::1024         16327                       # Occupied blocks per task id
system.l2.tags.age_task_id_blocks_1024::0            1                       # Occupied blocks per task id
system.l2.tags.age_task_id_blocks_1024::1          402                       # Occupied blocks per task id
system.l2.tags.age_task_id_blocks_1024::2         3328                       # Occupied blocks per task id
system.l2.tags.age_task_id_blocks_1024::3         9641                       # Occupied blocks per task id
system.l2.tags.age_task_id_blocks_1024::4         2955                       # Occupied blocks per task id
system.l2.tags.occ_task_id_percent::1024     0.996521                       # Percentage of cache occupancy per task id
system.l2.tags.tag_accesses                  27527930                       # Number of tag accesses
system.l2.tags.data_accesses                 27527930                       # Number of data accesses
system.l2.WritebackDirty_hits::writebacks      2508814                       # number of WritebackDirty hits
system.l2.WritebackDirty_hits::total          2508814                       # number of WritebackDirty hits
system.l2.WritebackClean_hits::writebacks         1079                       # number of WritebackClean hits
system.l2.WritebackClean_hits::total             1079                       # number of WritebackClean hits
system.l2.ReadExReq_hits::cpu.data             132084                       # number of ReadExReq hits
system.l2.ReadExReq_hits::total                132084                       # number of ReadExReq hits
system.l2.ReadCleanReq_hits::cpu.inst             807                       # number of ReadCleanReq hits
system.l2.ReadCleanReq_hits::total                807                       # number of ReadCleanReq hits
system.l2.ReadSharedReq_hits::cpu.data        3542393                       # number of ReadSharedReq hits
system.l2.ReadSharedReq_hits::total           3542393                       # number of ReadSharedReq hits
system.l2.demand_hits::cpu.inst                   807                       # number of demand (read+write) hits
system.l2.demand_hits::cpu.data               3674477                       # number of demand (read+write) hits
system.l2.demand_hits::total                  3675284                       # number of demand (read+write) hits
system.l2.overall_hits::cpu.inst                  807                       # number of overall hits
system.l2.overall_hits::cpu.data              3674477                       # number of overall hits
system.l2.overall_hits::total                 3675284                       # number of overall hits
system.l2.ReadExReq_misses::cpu.data           209661                       # number of ReadExReq misses
system.l2.ReadExReq_misses::total              209661                       # number of ReadExReq misses
system.l2.ReadCleanReq_misses::cpu.inst           714                       # number of ReadCleanReq misses
system.l2.ReadCleanReq_misses::total              714                       # number of ReadCleanReq misses
system.l2.ReadSharedReq_misses::cpu.data      6341823                       # number of ReadSharedReq misses
system.l2.ReadSharedReq_misses::total         6341823                       # number of ReadSharedReq misses
system.l2.demand_misses::cpu.inst                 714                       # number of demand (read+write) misses
system.l2.demand_misses::cpu.data             6551484                       # number of demand (read+write) misses
system.l2.demand_misses::total                6552198                       # number of demand (read+write) misses
system.l2.overall_misses::cpu.inst                714                       # number of overall misses
system.l2.overall_misses::cpu.data            6551484                       # number of overall misses
system.l2.overall_misses::total               6552198                       # number of overall misses
system.l2.ReadExReq_miss_latency::cpu.data  16835498000                       # number of ReadExReq miss cycles
system.l2.ReadExReq_miss_latency::total   16835498000                       # number of ReadExReq miss cycles
system.l2.ReadCleanReq_miss_latency::cpu.inst     57288500                       # number of ReadCleanReq miss cycles
system.l2.ReadCleanReq_miss_latency::total     57288500                       # number of ReadCleanReq miss cycles
system.l2.ReadSharedReq_miss_latency::cpu.data 583358196000                       # number of ReadSharedReq miss cycles
system.l2.ReadSharedReq_miss_latency::total 583358196000                       # number of ReadSharedReq miss cycles
system.l2.demand_miss_latency::cpu.inst      57288500                       # number of demand (read+write) miss cycles
system.l2.demand_miss_latency::cpu.data  600193694000                       # number of demand (read+write) miss cycles
system.l2.demand_miss_latency::total     600250982500                       # number of demand (read+write) miss cycles
system.l2.overall_miss_latency::cpu.inst     57288500                       # number of overall miss cycles
system.l2.overall_miss_latency::cpu.data 600193694000                       # number of overall miss cycles
system.l2.overall_miss_latency::total    600250982500                       # number of overall miss cycles
system.l2.WritebackDirty_accesses::writebacks      2508814                       # number of WritebackDirty accesses(hits+misses)
system.l2.WritebackDirty_accesses::total      2508814                       # number of WritebackDirty accesses(hits+misses)
system.l2.WritebackClean_accesses::writebacks         1079                       # number of WritebackClean accesses(hits+misses)
system.l2.WritebackClean_accesses::total         1079                       # number of WritebackClean accesses(hits+misses)
system.l2.ReadExReq_accesses::cpu.data         341745                       # number of ReadExReq accesses(hits+misses)
system.l2.ReadExReq_accesses::total            341745                       # number of ReadExReq accesses(hits+misses)
system.l2.ReadCleanReq_accesses::cpu.inst         1521                       # number of ReadCleanReq accesses(hits+misses)
system.l2.ReadCleanReq_accesses::total           1521                       # number of ReadCleanReq accesses(hits+misses)
system.l2.ReadSharedReq_accesses::cpu.data      9884216                       # number of ReadSharedReq accesses(hits+misses)
system.l2.ReadSharedReq_accesses::total       9884216                       # number of ReadSharedReq accesses(hits+misses)
system.l2.demand_accesses::cpu.inst              1521                       # number of demand (read+write) accesses
system.l2.demand_accesses::cpu.data          10225961                       # number of demand (read+write) accesses
system.l2.demand_accesses::total             10227482                       # number of demand (read+write) accesses
system.l2.overall_accesses::cpu.inst             1521                       # number of overall (read+write) accesses
system.l2.overall_accesses::cpu.data         10225961                       # number of overall (read+write) accesses
system.l2.overall_accesses::total            10227482                       # number of overall (read+write) accesses
system.l2.ReadExReq_miss_rate::cpu.data      0.613501                       # miss rate for ReadExReq accesses
system.l2.ReadExReq_miss_rate::total         0.613501                       # miss rate for ReadExReq accesses
system.l2.ReadCleanReq_miss_rate::cpu.inst     0.469428                       # miss rate for ReadCleanReq accesses
system.l2.ReadCleanReq_miss_rate::total      0.469428                       # miss rate for ReadCleanReq accesses
system.l2.ReadSharedReq_miss_rate::cpu.data     0.641611                       # miss rate for ReadSharedReq accesses
system.l2.ReadSharedReq_miss_rate::total     0.641611                       # miss rate for ReadSharedReq accesses
system.l2.demand_miss_rate::cpu.inst         0.469428                       # miss rate for demand accesses
system.l2.demand_miss_rate::cpu.data         0.640672                       # miss rate for demand accesses
system.l2.demand_miss_rate::total            0.640646                       # miss rate for demand accesses
system.l2.overall_miss_rate::cpu.inst        0.469428                       # miss rate for overall accesses
system.l2.overall_miss_rate::cpu.data        0.640672                       # miss rate for overall accesses
system.l2.overall_miss_rate::total           0.640646                       # miss rate for overall accesses
system.l2.ReadExReq_avg_miss_latency::cpu.data 80298.663080                       # average ReadExReq miss latency
system.l2.ReadExReq_avg_miss_latency::total 80298.663080                       # average ReadExReq miss latency
system.l2.ReadCleanReq_avg_miss_latency::cpu.inst 80235.994398                       # average ReadCleanReq miss latency
system.l2.ReadCleanReq_avg_miss_latency::total 80235.994398                       # average ReadCleanReq miss latency
system.l2.ReadSharedReq_avg_miss_latency::cpu.data 91985.884185                       # average ReadSharedReq miss latency
system.l2.ReadSharedReq_avg_miss_latency::total 91985.884185                       # average ReadSharedReq miss latency
system.l2.demand_avg_miss_latency::cpu.inst 80235.994398                       # average overall miss latency
system.l2.demand_avg_miss_latency::cpu.data 91611.869006                       # average overall miss latency
system.l2.demand_avg_miss_latency::total 91610.629364                       # average overall miss latency
system.l2.overall_avg_miss_latency::cpu.inst 80235.994398                       # average overall miss latency
system.l2.overall_avg_miss_latency::cpu.data 91611.869006                       # average overall miss latency
system.l2.overall_avg_miss_latency::total 91610.629364                       # average overall miss latency
system.l2.blocked_cycles::no_mshrs                  0                       # number of cycles access was blocked
system.l2.blocked_cycles::no_targets                0                       # number of cycles access was blocked
system.l2.blocked::no_mshrs                         0                       # number of cycles access was blocked
system.l2.blocked::no_targets                       0                       # number of cycles access was blocked
system.l2.avg_blocked_cycles::no_mshrs            nan                       # average number of cycles each access was blocked
system.l2.avg_blocked_cycles::no_targets          nan                       # average number of cycles each access was blocked
system.l2.fast_writes                               0                       # number of fast writes performed
system.l2.cache_copies                              0                       # number of cache copies performed
system.l2.writebacks::writebacks              1115073                       # number of writebacks
system.l2.writebacks::total                   1115073                       # number of writebacks
system.l2.CleanEvict_mshr_misses::writebacks       714295                       # number of CleanEvict MSHR misses
system.l2.CleanEvict_mshr_misses::total        714295                       # number of CleanEvict MSHR misses
system.l2.ReadExReq_mshr_misses::cpu.data       209661                       # number of ReadExReq MSHR misses
system.l2.ReadExReq_mshr_misses::total         209661                       # number of ReadExReq MSHR misses
system.l2.ReadCleanReq_mshr_misses::cpu.inst          714                       # number of ReadCleanReq MSHR misses
system.l2.ReadCleanReq_mshr_misses::total          714                       # number of ReadCleanReq MSHR misses
system.l2.ReadSharedReq_mshr_misses::cpu.data      6341823                       # number of ReadSharedReq MSHR misses
system.l2.ReadSharedReq_mshr_misses::total      6341823                       # number of ReadSharedReq MSHR misses
system.l2.demand_mshr_misses::cpu.inst            714                       # number of demand (read+write) MSHR misses
system.l2.demand_mshr_misses::cpu.data        6551484                       # number of demand (read+write) MSHR misses
system.l2.demand_mshr_misses::total           6552198                       # number of demand (read+write) MSHR misses
system.l2.overall_mshr_misses::cpu.inst           714                       # number of overall MSHR misses
system.l2.overall_mshr_misses::cpu.data       6551484                       # number of overall MSHR misses
system.l2.overall_mshr_misses::total          6552198                       # number of overall MSHR misses
system.l2.ReadExReq_mshr_miss_latency::cpu.data  14738888000                       # number of ReadExReq MSHR miss cycles
system.l2.ReadExReq_mshr_miss_latency::total  14738888000                       # number of ReadExReq MSHR miss cycles
system.l2.ReadCleanReq_mshr_miss_latency::cpu.inst     50148500                       # number of ReadCleanReq MSHR miss cycles
system.l2.ReadCleanReq_mshr_miss_latency::total     50148500                       # number of ReadCleanReq MSHR miss cycles
system.l2.ReadSharedReq_mshr_miss_latency::cpu.data 519939966000                       # number of ReadSharedReq MSHR miss cycles
system.l2.ReadSharedReq_mshr_miss_latency::total 519939966000                       # number of ReadSharedReq MSHR miss cycles
system.l2.demand_mshr_miss_latency::cpu.inst     50148500                       # number of demand (read+write) MSHR miss cycles
system.l2.demand_mshr_miss_latency::cpu.data 534678854000                       # number of demand (read+write) MSHR miss cycles
system.l2.demand_mshr_miss_latency::total 534729002500                       # number of demand (read+write) MSHR miss cycles
system.l2.overall_mshr_miss_latency::cpu.inst     50148500                       # number of overall MSHR miss cycles
system.l2.overall_mshr_miss_latency::cpu.data 534678854000                       # number of overall MSHR miss cycles
system.l2.overall_mshr_miss_latency::total 534729002500                       # number of overall MSHR miss cycles
system.l2.CleanEvict_mshr_miss_rate::writebacks          inf                       # mshr miss rate for CleanEvict accesses
system.l2.CleanEvict_mshr_miss_rate::total          inf                       # mshr miss rate for CleanEvict accesses
system.l2.ReadExReq_mshr_miss_rate::cpu.data     0.613501                       # mshr miss rate for ReadExReq accesses
system.l2.ReadExReq_mshr_miss_rate::total     0.613501                       # mshr miss rate for ReadExReq accesses
system.l2.ReadCleanReq_mshr_miss_rate::cpu.inst     0.469428                       # mshr miss rate for ReadCleanReq accesses
system.l2.ReadCleanReq_mshr_miss_rate::total     0.469428                       # mshr miss rate for ReadCleanReq accesses
system.l2.ReadSharedReq_mshr_miss_rate::cpu.data     0.641611                       # mshr miss rate for ReadSharedReq accesses
system.l2.ReadSharedReq_mshr_miss_rate::total     0.641611                       # mshr miss rate for ReadSharedReq accesses
system.l2.demand_mshr_miss_rate::cpu.inst     0.469428                       # mshr miss rate for demand accesses
system.l2.demand_mshr_miss_rate::cpu.data     0.640672                       # mshr miss rate for demand accesses
system.l2.demand_mshr_miss_rate::total       0.640646                       # mshr miss rate for demand accesses
system.l2.overall_mshr_miss_rate::cpu.inst     0.469428                       # mshr miss rate for overall accesses
system.l2.overall_mshr_miss_rate::cpu.data     0.640672                       # mshr miss rate for overall accesses
system.l2.overall_mshr_miss_rate::total      0.640646                       # mshr miss rate for overall accesses
system.l2.ReadExReq_avg_mshr_miss_latency::cpu.data 70298.663080                       # average ReadExReq mshr miss latency
system.l2.ReadExReq_avg_mshr_miss_latency::total 70298.663080                       # average ReadExReq mshr miss latency
system.l2.ReadCleanReq_avg_mshr_miss_latency::cpu.inst 70235.994398                       # average ReadCleanReq mshr miss latency
system.l2.ReadCleanReq_avg_mshr_miss_latency::total 70235.994398                       # average ReadCleanReq mshr miss latency
system.l2.ReadSharedReq_avg_mshr_miss_latency::cpu.data 81985.884185                       # average ReadSharedReq mshr miss latency
system.l2.ReadSharedReq_avg_mshr_miss_latency::total 81985.884185                       # average ReadSharedReq mshr miss latency
system.l2.demand_avg_mshr_miss_latency::cpu.inst 70235.994398                       # average overall mshr miss latency
system.l2.demand_avg_mshr_miss_latency::cpu.data 81611.869006                       # average overall mshr miss latency
system.l2.demand_avg_mshr_miss_latency::total 81610.629364                       # average overall mshr miss latency
system.l2.overall_avg_mshr_miss_latency::cpu.inst 70235.994398                       # average overall mshr miss latency
system.l2.overall_avg_mshr_miss_latency::cpu.data 81611.869006                       # average overall mshr miss latency
system.l2.overall_avg_mshr_miss_latency::total 81610.629364                       # average overall mshr miss latency
system.l2.no_allocate_misses                        0                       # Number of misses that were no-allocate
system.membus.trans_dist::ReadResp            6342537                       # Transaction distribution
system.membus.trans_dist::WritebackDirty      1115073                       # Transaction distribution
system.membus.trans_dist::CleanEvict          5420218                       # Transaction distribution
system.membus.trans_dist::ReadExReq            209661                       # Transaction distribution
system.membus.trans_dist::ReadExResp           209661                       # Transaction distribution
system.membus.trans_dist::ReadSharedReq       6342537                       # Transaction distribution
system.membus.pkt_count_system.l2.mem_side::system.mem_ctrls.port     19639687                       # Packet count per connected master and slave (bytes)
system.membus.pkt_count_system.l2.mem_side::total     19639687                       # Packet count per connected master and slave (bytes)
system.membus.pkt_count::total               19639687                       # Packet count per connected master and slave (bytes)
system.membus.pkt_size_system.l2.mem_side::system.mem_ctrls.port    490705344                       # Cumulative packet size per connected master and slave (bytes)
system.membus.pkt_size_system.l2.mem_side::total    490705344                       # Cumulative packet size per connected master and slave (bytes)
system.membus.pkt_size::total               490705344                       # Cumulative packet size per connected master and slave (bytes)
system.membus.snoops                                0                       # Total snoops (count)
system.membus.snoop_fanout::samples          13087489                       # Request fanout histogram
system.membus.snoop_fanout::mean                    0                       # Request fanout histogram
system.membus.snoop_fanout::stdev                   0                       # Request fanout histogram
system.membus.snoop_fanout::underflows              0      0.00%      0.00% # Request fanout histogram
system.membus.snoop_fanout::0                13087489    100.00%    100.00% # Request fanout histogram
system.membus.snoop_fanout::1                       0      0.00%    100.00% # Request fanout histogram
system.membus.snoop_fanout::overflows               0      0.00%    100.00% # Request fanout histogram
system.membus.snoop_fanout::min_value               0                       # Request fanout histogram
system.membus.snoop_fanout::max_value               0                       # Request fanout histogram
system.membus.snoop_fanout::total            13087489                       # Request fanout histogram
system.membus.reqLayer2.occupancy         17554849500                       # Layer occupancy (ticks)
system.membus.reqLayer2.utilization               1.1                       # Layer utilization (%)
system.membus.respLayer1.occupancy        36556170500                       # Layer occupancy (ticks)
system.membus.respLayer1.utilization              2.2                       # Layer utilization (%)
system.tol2bus.snoop_filter.tot_requests     20452475                       # Total number of requests made to the snoop filter.
system.tol2bus.snoop_filter.hit_single_requests     10224993                       # Number of requests hitting in the snoop filter with a single holder of the requested data.
system.tol2bus.snoop_filter.hit_multi_requests            1                       # Number of requests hitting in the snoop filter with multiple (>1) holders of the requested data.
system.tol2bus.snoop_filter.tot_snoops         896388                       # Total number of snoops made to the snoop filter.
system.tol2bus.snoop_filter.hit_single_snoops       896388                       # Number of snoops hitting in the snoop filter with a single holder of the requested data.
system.tol2bus.snoop_filter.hit_multi_snoops            0                       # Number of snoops hitting in the snoop filter with multiple (>1) holders of the requested data.
system.tol2bus.trans_dist::ReadResp           9885737                       # Transaction distribution
system.tol2bus.trans_dist::WritebackDirty      3623887                       # Transaction distribution
system.tol2bus.trans_dist::WritebackClean         1079                       # Transaction distribution
system.tol2bus.trans_dist::CleanEvict        13317410                       # Transaction distribution
system.tol2bus.trans_dist::ReadExReq           341745                       # Transaction distribution
system.tol2bus.trans_dist::ReadExResp          341745                       # Transaction distribution
system.tol2bus.trans_dist::ReadCleanReq          1521                       # Transaction distribution
system.tol2bus.trans_dist::ReadSharedReq      9884216                       # Transaction distribution
system.tol2bus.pkt_count_system.cpu.icache.mem_side::system.l2.cpu_side         4121                       # Packet count per connected master and slave (bytes)
system.tol2bus.pkt_count_system.cpu.dcache.mem_side::system.l2.cpu_side     30675835                       # Packet count per connected master and slave (bytes)
system.tol2bus.pkt_count::total              30679956                       # Packet count per connected master and slave (bytes)
system.tol2bus.pkt_size_system.cpu.icache.mem_side::system.l2.cpu_side       166400                       # Cumulative packet size per connected master and slave (bytes)
system.tol2bus.pkt_size_system.cpu.dcache.mem_side::system.l2.cpu_side    815025600                       # Cumulative packet size per connected master and slave (bytes)
system.tol2bus.pkt_size::total              815192000                       # Cumulative packet size per connected master and slave (bytes)
system.tol2bus.snoops                         6717384                       # Total snoops (count)
system.tol2bus.snoop_fanout::samples         16944866                       # Request fanout histogram
system.tol2bus.snoop_fanout::mean            0.052900                       # Request fanout histogram
system.tol2bus.snoop_fanout::stdev           0.223835                       # Request fanout histogram
system.tol2bus.snoop_fanout::underflows             0      0.00%      0.00% # Request fanout histogram
system.tol2bus.snoop_fanout::0               16048477     94.71%     94.71% # Request fanout histogram
system.tol2bus.snoop_fanout::1                 896389      5.29%    100.00% # Request fanout histogram
system.tol2bus.snoop_fanout::2                      0      0.00%    100.00% # Request fanout histogram
system.tol2bus.snoop_fanout::3                      0      0.00%    100.00% # Request fanout histogram
system.tol2bus.snoop_fanout::4                      0      0.00%    100.00% # Request fanout histogram
system.tol2bus.snoop_fanout::overflows              0      0.00%    100.00% # Request fanout histogram
system.tol2bus.snoop_fanout::min_value              0                       # Request fanout histogram
system.tol2bus.snoop_fanout::max_value              1                       # Request fanout histogram
system.tol2bus.snoop_fanout::total           16944866                       # Request fanout histogram
system.tol2bus.reqLayer0.occupancy        12736131500                       # Layer occupancy (ticks)
system.tol2bus.reqLayer0.utilization              0.8                       # Layer utilization (%)
system.tol2bus.respLayer0.occupancy           2281500                       # Layer occupancy (ticks)
system.tol2bus.respLayer0.utilization             0.0                       # Layer utilization (%)
system.tol2bus.respLayer1.occupancy       15338941500                       # Layer occupancy (ticks)
system.tol2bus.respLayer1.utilization             0.9                       # Layer utilization (%)

---------- End Simulation Statistics   ----------
