
---------- Begin Simulation Statistics ----------
sim_seconds                                  1.151275                       # Number of seconds simulated
sim_ticks                                1151275457500                       # Number of ticks simulated
final_tick                               1151275457500                       # Number of ticks from beginning of simulation (restored from checkpoints and never reset)
sim_freq                                 1000000000000                       # Frequency of simulated ticks
host_inst_rate                                  37696                       # Simulator instruction rate (inst/s)
host_op_rate                                    55071                       # Simulator op (including micro ops) rate (op/s)
host_tick_rate                               86797912                       # Simulator tick rate (ticks/s)
host_mem_usage                                 826232                       # Number of bytes of host memory used
host_seconds                                 13263.86                       # Real time elapsed on the host
sim_insts                                   500000001                       # Number of instructions simulated
sim_ops                                     730450447                       # Number of ops (including micro ops) simulated
system.voltage_domain.voltage                       1                       # Voltage in Volts
system.clk_domain.clock                          1000                       # Clock period in ticks
system.mem_ctrls.bytes_read::cpu.inst           63616                       # Number of bytes read from this memory
system.mem_ctrls.bytes_read::cpu.data       124948480                       # Number of bytes read from this memory
system.mem_ctrls.bytes_read::total          125012096                       # Number of bytes read from this memory
system.mem_ctrls.bytes_inst_read::cpu.inst        63616                       # Number of instructions bytes read from this memory
system.mem_ctrls.bytes_inst_read::total         63616                       # Number of instructions bytes read from this memory
system.mem_ctrls.bytes_written::writebacks     50047488                       # Number of bytes written to this memory
system.mem_ctrls.bytes_written::total        50047488                       # Number of bytes written to this memory
system.mem_ctrls.num_reads::cpu.inst              994                       # Number of read requests responded to by this memory
system.mem_ctrls.num_reads::cpu.data          1952320                       # Number of read requests responded to by this memory
system.mem_ctrls.num_reads::total             1953314                       # Number of read requests responded to by this memory
system.mem_ctrls.num_writes::writebacks        781992                       # Number of write requests responded to by this memory
system.mem_ctrls.num_writes::total             781992                       # Number of write requests responded to by this memory
system.mem_ctrls.bw_read::cpu.inst              55257                       # Total read bandwidth from this memory (bytes/s)
system.mem_ctrls.bw_read::cpu.data          108530482                       # Total read bandwidth from this memory (bytes/s)
system.mem_ctrls.bw_read::total             108585739                       # Total read bandwidth from this memory (bytes/s)
system.mem_ctrls.bw_inst_read::cpu.inst         55257                       # Instruction read bandwidth from this memory (bytes/s)
system.mem_ctrls.bw_inst_read::total            55257                       # Instruction read bandwidth from this memory (bytes/s)
system.mem_ctrls.bw_write::writebacks        43471341                       # Write bandwidth from this memory (bytes/s)
system.mem_ctrls.bw_write::total             43471341                       # Write bandwidth from this memory (bytes/s)
system.mem_ctrls.bw_total::writebacks        43471341                       # Total bandwidth to/from this memory (bytes/s)
system.mem_ctrls.bw_total::cpu.inst             55257                       # Total bandwidth to/from this memory (bytes/s)
system.mem_ctrls.bw_total::cpu.data         108530482                       # Total bandwidth to/from this memory (bytes/s)
system.mem_ctrls.bw_total::total            152057080                       # Total bandwidth to/from this memory (bytes/s)
system.mem_ctrls.readReqs                     1953314                       # Number of read requests accepted
system.mem_ctrls.writeReqs                     781992                       # Number of write requests accepted
system.mem_ctrls.readBursts                   1953314                       # Number of DRAM read bursts, including those serviced by the write queue
system.mem_ctrls.writeBursts                   781992                       # Number of DRAM write bursts, including those merged in the write queue
system.mem_ctrls.bytesReadDRAM              124043328                       # Total number of bytes read from DRAM
system.mem_ctrls.bytesReadWrQ                  968768                       # Total number of bytes read from write queue
system.mem_ctrls.bytesWritten                49957632                       # Total number of bytes written to DRAM
system.mem_ctrls.bytesReadSys               125012096                       # Total read bytes from the system interface side
system.mem_ctrls.bytesWrittenSys             50047488                       # Total written bytes from the system interface side
system.mem_ctrls.servicedByWrQ                  15137                       # Number of DRAM read bursts serviced by the write queue
system.mem_ctrls.mergedWrBursts                  1374                       # Number of DRAM write bursts merged with an existing one
system.mem_ctrls.neitherReadNorWriteReqs      1168311                       # Number of requests that are neither read nor write
system.mem_ctrls.perBankRdBursts::0            121530                       # Per bank write bursts
system.mem_ctrls.perBankRdBursts::1            121677                       # Per bank write bursts
system.mem_ctrls.perBankRdBursts::2            125118                       # Per bank write bursts
system.mem_ctrls.perBankRdBursts::3            118605                       # Per bank write bursts
system.mem_ctrls.perBankRdBursts::4            118138                       # Per bank write bursts
system.mem_ctrls.perBankRdBursts::5            117996                       # Per bank write bursts
system.mem_ctrls.perBankRdBursts::6            128323                       # Per bank write bursts
system.mem_ctrls.perBankRdBursts::7            124566                       # Per bank write bursts
system.mem_ctrls.perBankRdBursts::8            105045                       # Per bank write bursts
system.mem_ctrls.perBankRdBursts::9            105345                       # Per bank write bursts
system.mem_ctrls.perBankRdBursts::10           118652                       # Per bank write bursts
system.mem_ctrls.perBankRdBursts::11           122677                       # Per bank write bursts
system.mem_ctrls.perBankRdBursts::12           122758                       # Per bank write bursts
system.mem_ctrls.perBankRdBursts::13           122686                       # Per bank write bursts
system.mem_ctrls.perBankRdBursts::14           130680                       # Per bank write bursts
system.mem_ctrls.perBankRdBursts::15           134381                       # Per bank write bursts
system.mem_ctrls.perBankWrBursts::0             47791                       # Per bank write bursts
system.mem_ctrls.perBankWrBursts::1             46837                       # Per bank write bursts
system.mem_ctrls.perBankWrBursts::2             51927                       # Per bank write bursts
system.mem_ctrls.perBankWrBursts::3             48696                       # Per bank write bursts
system.mem_ctrls.perBankWrBursts::4             43350                       # Per bank write bursts
system.mem_ctrls.perBankWrBursts::5             44100                       # Per bank write bursts
system.mem_ctrls.perBankWrBursts::6             50256                       # Per bank write bursts
system.mem_ctrls.perBankWrBursts::7             53512                       # Per bank write bursts
system.mem_ctrls.perBankWrBursts::8             46026                       # Per bank write bursts
system.mem_ctrls.perBankWrBursts::9             45588                       # Per bank write bursts
system.mem_ctrls.perBankWrBursts::10            48646                       # Per bank write bursts
system.mem_ctrls.perBankWrBursts::11            49246                       # Per bank write bursts
system.mem_ctrls.perBankWrBursts::12            45184                       # Per bank write bursts
system.mem_ctrls.perBankWrBursts::13            46825                       # Per bank write bursts
system.mem_ctrls.perBankWrBursts::14            52475                       # Per bank write bursts
system.mem_ctrls.perBankWrBursts::15            60129                       # Per bank write bursts
system.mem_ctrls.numRdRetry                         0                       # Number of times read queue was full causing retry
system.mem_ctrls.numWrRetry                         0                       # Number of times write queue was full causing retry
system.mem_ctrls.totGap                  1151242630500                       # Total gap between requests
system.mem_ctrls.readPktSize::0                     0                       # Read request sizes (log2)
system.mem_ctrls.readPktSize::1                     0                       # Read request sizes (log2)
system.mem_ctrls.readPktSize::2                     0                       # Read request sizes (log2)
system.mem_ctrls.readPktSize::3                     0                       # Read request sizes (log2)
system.mem_ctrls.readPktSize::4                     0                       # Read request sizes (log2)
system.mem_ctrls.readPktSize::5                     0                       # Read request sizes (log2)
system.mem_ctrls.readPktSize::6               1953314                       # Read request sizes (log2)
system.mem_ctrls.writePktSize::0                    0                       # Write request sizes (log2)
system.mem_ctrls.writePktSize::1                    0                       # Write request sizes (log2)
system.mem_ctrls.writePktSize::2                    0                       # Write request sizes (log2)
system.mem_ctrls.writePktSize::3                    0                       # Write request sizes (log2)
system.mem_ctrls.writePktSize::4                    0                       # Write request sizes (log2)
system.mem_ctrls.writePktSize::5                    0                       # Write request sizes (log2)
system.mem_ctrls.writePktSize::6               781992                       # Write request sizes (log2)
system.mem_ctrls.rdQLenPdf::0                 1929377                       # What read queue length does an incoming req see
system.mem_ctrls.rdQLenPdf::1                    7660                       # What read queue length does an incoming req see
system.mem_ctrls.rdQLenPdf::2                     607                       # What read queue length does an incoming req see
system.mem_ctrls.rdQLenPdf::3                     533                       # What read queue length does an incoming req see
system.mem_ctrls.rdQLenPdf::4                       0                       # What read queue length does an incoming req see
system.mem_ctrls.rdQLenPdf::5                       0                       # What read queue length does an incoming req see
system.mem_ctrls.rdQLenPdf::6                       0                       # What read queue length does an incoming req see
system.mem_ctrls.rdQLenPdf::7                       0                       # What read queue length does an incoming req see
system.mem_ctrls.rdQLenPdf::8                       0                       # What read queue length does an incoming req see
system.mem_ctrls.rdQLenPdf::9                       0                       # What read queue length does an incoming req see
system.mem_ctrls.rdQLenPdf::10                      0                       # What read queue length does an incoming req see
system.mem_ctrls.rdQLenPdf::11                      0                       # What read queue length does an incoming req see
system.mem_ctrls.rdQLenPdf::12                      0                       # What read queue length does an incoming req see
system.mem_ctrls.rdQLenPdf::13                      0                       # What read queue length does an incoming req see
system.mem_ctrls.rdQLenPdf::14                      0                       # What read queue length does an incoming req see
system.mem_ctrls.rdQLenPdf::15                      0                       # What read queue length does an incoming req see
system.mem_ctrls.rdQLenPdf::16                      0                       # What read queue length does an incoming req see
system.mem_ctrls.rdQLenPdf::17                      0                       # What read queue length does an incoming req see
system.mem_ctrls.rdQLenPdf::18                      0                       # What read queue length does an incoming req see
system.mem_ctrls.rdQLenPdf::19                      0                       # What read queue length does an incoming req see
system.mem_ctrls.rdQLenPdf::20                      0                       # What read queue length does an incoming req see
system.mem_ctrls.rdQLenPdf::21                      0                       # What read queue length does an incoming req see
system.mem_ctrls.rdQLenPdf::22                      0                       # What read queue length does an incoming req see
system.mem_ctrls.rdQLenPdf::23                      0                       # What read queue length does an incoming req see
system.mem_ctrls.rdQLenPdf::24                      0                       # What read queue length does an incoming req see
system.mem_ctrls.rdQLenPdf::25                      0                       # What read queue length does an incoming req see
system.mem_ctrls.rdQLenPdf::26                      0                       # What read queue length does an incoming req see
system.mem_ctrls.rdQLenPdf::27                      0                       # What read queue length does an incoming req see
system.mem_ctrls.rdQLenPdf::28                      0                       # What read queue length does an incoming req see
system.mem_ctrls.rdQLenPdf::29                      0                       # What read queue length does an incoming req see
system.mem_ctrls.rdQLenPdf::30                      0                       # What read queue length does an incoming req see
system.mem_ctrls.rdQLenPdf::31                      0                       # What read queue length does an incoming req see
system.mem_ctrls.wrQLenPdf::0                       1                       # What write queue length does an incoming req see
system.mem_ctrls.wrQLenPdf::1                       1                       # What write queue length does an incoming req see
system.mem_ctrls.wrQLenPdf::2                       1                       # What write queue length does an incoming req see
system.mem_ctrls.wrQLenPdf::3                       1                       # What write queue length does an incoming req see
system.mem_ctrls.wrQLenPdf::4                       1                       # What write queue length does an incoming req see
system.mem_ctrls.wrQLenPdf::5                       1                       # What write queue length does an incoming req see
system.mem_ctrls.wrQLenPdf::6                       1                       # What write queue length does an incoming req see
system.mem_ctrls.wrQLenPdf::7                       1                       # What write queue length does an incoming req see
system.mem_ctrls.wrQLenPdf::8                       1                       # What write queue length does an incoming req see
system.mem_ctrls.wrQLenPdf::9                       1                       # What write queue length does an incoming req see
system.mem_ctrls.wrQLenPdf::10                      1                       # What write queue length does an incoming req see
system.mem_ctrls.wrQLenPdf::11                      1                       # What write queue length does an incoming req see
system.mem_ctrls.wrQLenPdf::12                      1                       # What write queue length does an incoming req see
system.mem_ctrls.wrQLenPdf::13                      1                       # What write queue length does an incoming req see
system.mem_ctrls.wrQLenPdf::14                      1                       # What write queue length does an incoming req see
system.mem_ctrls.wrQLenPdf::15                  24355                       # What write queue length does an incoming req see
system.mem_ctrls.wrQLenPdf::16                  27957                       # What write queue length does an incoming req see
system.mem_ctrls.wrQLenPdf::17                  45577                       # What write queue length does an incoming req see
system.mem_ctrls.wrQLenPdf::18                  45641                       # What write queue length does an incoming req see
system.mem_ctrls.wrQLenPdf::19                  45519                       # What write queue length does an incoming req see
system.mem_ctrls.wrQLenPdf::20                  45507                       # What write queue length does an incoming req see
system.mem_ctrls.wrQLenPdf::21                  45502                       # What write queue length does an incoming req see
system.mem_ctrls.wrQLenPdf::22                  45507                       # What write queue length does an incoming req see
system.mem_ctrls.wrQLenPdf::23                  45508                       # What write queue length does an incoming req see
system.mem_ctrls.wrQLenPdf::24                  45503                       # What write queue length does an incoming req see
system.mem_ctrls.wrQLenPdf::25                  45502                       # What write queue length does an incoming req see
system.mem_ctrls.wrQLenPdf::26                  45504                       # What write queue length does an incoming req see
system.mem_ctrls.wrQLenPdf::27                  45503                       # What write queue length does an incoming req see
system.mem_ctrls.wrQLenPdf::28                  45504                       # What write queue length does an incoming req see
system.mem_ctrls.wrQLenPdf::29                  45506                       # What write queue length does an incoming req see
system.mem_ctrls.wrQLenPdf::30                  45502                       # What write queue length does an incoming req see
system.mem_ctrls.wrQLenPdf::31                  45501                       # What write queue length does an incoming req see
system.mem_ctrls.wrQLenPdf::32                  45501                       # What write queue length does an incoming req see
system.mem_ctrls.wrQLenPdf::33                      4                       # What write queue length does an incoming req see
system.mem_ctrls.wrQLenPdf::34                      0                       # What write queue length does an incoming req see
system.mem_ctrls.wrQLenPdf::35                      0                       # What write queue length does an incoming req see
system.mem_ctrls.wrQLenPdf::36                      0                       # What write queue length does an incoming req see
system.mem_ctrls.wrQLenPdf::37                      0                       # What write queue length does an incoming req see
system.mem_ctrls.wrQLenPdf::38                      0                       # What write queue length does an incoming req see
system.mem_ctrls.wrQLenPdf::39                      0                       # What write queue length does an incoming req see
system.mem_ctrls.wrQLenPdf::40                      0                       # What write queue length does an incoming req see
system.mem_ctrls.wrQLenPdf::41                      0                       # What write queue length does an incoming req see
system.mem_ctrls.wrQLenPdf::42                      0                       # What write queue length does an incoming req see
system.mem_ctrls.wrQLenPdf::43                      0                       # What write queue length does an incoming req see
system.mem_ctrls.wrQLenPdf::44                      0                       # What write queue length does an incoming req see
system.mem_ctrls.wrQLenPdf::45                      0                       # What write queue length does an incoming req see
system.mem_ctrls.wrQLenPdf::46                      0                       # What write queue length does an incoming req see
system.mem_ctrls.wrQLenPdf::47                      0                       # What write queue length does an incoming req see
system.mem_ctrls.wrQLenPdf::48                      0                       # What write queue length does an incoming req see
system.mem_ctrls.wrQLenPdf::49                      0                       # What write queue length does an incoming req see
system.mem_ctrls.wrQLenPdf::50                      0                       # What write queue length does an incoming req see
system.mem_ctrls.wrQLenPdf::51                      0                       # What write queue length does an incoming req see
system.mem_ctrls.wrQLenPdf::52                      0                       # What write queue length does an incoming req see
system.mem_ctrls.wrQLenPdf::53                      0                       # What write queue length does an incoming req see
system.mem_ctrls.wrQLenPdf::54                      0                       # What write queue length does an incoming req see
system.mem_ctrls.wrQLenPdf::55                      0                       # What write queue length does an incoming req see
system.mem_ctrls.wrQLenPdf::56                      0                       # What write queue length does an incoming req see
system.mem_ctrls.wrQLenPdf::57                      0                       # What write queue length does an incoming req see
system.mem_ctrls.wrQLenPdf::58                      0                       # What write queue length does an incoming req see
system.mem_ctrls.wrQLenPdf::59                      0                       # What write queue length does an incoming req see
system.mem_ctrls.wrQLenPdf::60                      0                       # What write queue length does an incoming req see
system.mem_ctrls.wrQLenPdf::61                      0                       # What write queue length does an incoming req see
system.mem_ctrls.wrQLenPdf::62                      0                       # What write queue length does an incoming req see
system.mem_ctrls.wrQLenPdf::63                      0                       # What write queue length does an incoming req see
system.mem_ctrls.bytesPerActivate::samples      1609073                       # Bytes accessed per row activation
system.mem_ctrls.bytesPerActivate::mean    108.137393                       # Bytes accessed per row activation
system.mem_ctrls.bytesPerActivate::gmean    85.963984                       # Bytes accessed per row activation
system.mem_ctrls.bytesPerActivate::stdev   119.481565                       # Bytes accessed per row activation
system.mem_ctrls.bytesPerActivate::0-127      1158191     71.98%     71.98% # Bytes accessed per row activation
system.mem_ctrls.bytesPerActivate::128-255       341432     21.22%     93.20% # Bytes accessed per row activation
system.mem_ctrls.bytesPerActivate::256-383        46520      2.89%     96.09% # Bytes accessed per row activation
system.mem_ctrls.bytesPerActivate::384-511        15694      0.98%     97.06% # Bytes accessed per row activation
system.mem_ctrls.bytesPerActivate::512-639        29085      1.81%     98.87% # Bytes accessed per row activation
system.mem_ctrls.bytesPerActivate::640-767         3391      0.21%     99.08% # Bytes accessed per row activation
system.mem_ctrls.bytesPerActivate::768-895         2249      0.14%     99.22% # Bytes accessed per row activation
system.mem_ctrls.bytesPerActivate::896-1023         1869      0.12%     99.34% # Bytes accessed per row activation
system.mem_ctrls.bytesPerActivate::1024-1151        10642      0.66%    100.00% # Bytes accessed per row activation
system.mem_ctrls.bytesPerActivate::total      1609073                       # Bytes accessed per row activation
system.mem_ctrls.rdPerTurnAround::samples        45501                       # Reads before turning the bus around for writes
system.mem_ctrls.rdPerTurnAround::mean      42.556405                       # Reads before turning the bus around for writes
system.mem_ctrls.rdPerTurnAround::gmean     26.174150                       # Reads before turning the bus around for writes
system.mem_ctrls.rdPerTurnAround::stdev    189.956898                       # Reads before turning the bus around for writes
system.mem_ctrls.rdPerTurnAround::0-1023        45387     99.75%     99.75% # Reads before turning the bus around for writes
system.mem_ctrls.rdPerTurnAround::1024-2047           92      0.20%     99.95% # Reads before turning the bus around for writes
system.mem_ctrls.rdPerTurnAround::2048-3071           18      0.04%     99.99% # Reads before turning the bus around for writes
system.mem_ctrls.rdPerTurnAround::3072-4095            2      0.00%    100.00% # Reads before turning the bus around for writes
system.mem_ctrls.rdPerTurnAround::13312-14335            1      0.00%    100.00% # Reads before turning the bus around for writes
system.mem_ctrls.rdPerTurnAround::29696-30719            1      0.00%    100.00% # Reads before turning the bus around for writes
system.mem_ctrls.rdPerTurnAround::total         45501                       # Reads before turning the bus around for writes
system.mem_ctrls.wrPerTurnAround::samples        45501                       # Writes before turning the bus around for reads
system.mem_ctrls.wrPerTurnAround::mean      17.155403                       # Writes before turning the bus around for reads
system.mem_ctrls.wrPerTurnAround::gmean     17.128441                       # Writes before turning the bus around for reads
system.mem_ctrls.wrPerTurnAround::stdev      0.956437                       # Writes before turning the bus around for reads
system.mem_ctrls.wrPerTurnAround::16            17557     38.59%     38.59% # Writes before turning the bus around for reads
system.mem_ctrls.wrPerTurnAround::17             3582      7.87%     46.46% # Writes before turning the bus around for reads
system.mem_ctrls.wrPerTurnAround::18            24098     52.96%     99.42% # Writes before turning the bus around for reads
system.mem_ctrls.wrPerTurnAround::19              262      0.58%    100.00% # Writes before turning the bus around for reads
system.mem_ctrls.wrPerTurnAround::20                2      0.00%    100.00% # Writes before turning the bus around for reads
system.mem_ctrls.wrPerTurnAround::total         45501                       # Writes before turning the bus around for reads
system.mem_ctrls.totQLat                  31384992250                       # Total ticks spent queuing
system.mem_ctrls.totMemAccLat             67725811000                       # Total ticks spent from burst creation until serviced by the DRAM
system.mem_ctrls.totBusLat                 9690885000                       # Total ticks spent in databus transfers
system.mem_ctrls.avgQLat                     16193.05                       # Average queueing delay per DRAM burst
system.mem_ctrls.avgBusLat                    5000.00                       # Average bus latency per DRAM burst
system.mem_ctrls.avgMemAccLat                34943.05                       # Average memory access latency per DRAM burst
system.mem_ctrls.avgRdBW                       107.74                       # Average DRAM read bandwidth in MiByte/s
system.mem_ctrls.avgWrBW                        43.39                       # Average achieved write bandwidth in MiByte/s
system.mem_ctrls.avgRdBWSys                    108.59                       # Average system read bandwidth in MiByte/s
system.mem_ctrls.avgWrBWSys                     43.47                       # Average system write bandwidth in MiByte/s
system.mem_ctrls.peakBW                      12800.00                       # Theoretical peak bandwidth in MiByte/s
system.mem_ctrls.busUtil                         1.18                       # Data bus utilization in percentage
system.mem_ctrls.busUtilRead                     0.84                       # Data bus utilization in percentage for reads
system.mem_ctrls.busUtilWrite                    0.34                       # Data bus utilization in percentage for writes
system.mem_ctrls.avgRdQLen                       1.00                       # Average read queue length when enqueuing
system.mem_ctrls.avgWrQLen                      23.56                       # Average write queue length when enqueuing
system.mem_ctrls.readRowHits                   821948                       # Number of row buffer hits during reads
system.mem_ctrls.writeRowHits                  287744                       # Number of row buffer hits during writes
system.mem_ctrls.readRowHitRate                 42.41                       # Row buffer hit rate for reads
system.mem_ctrls.writeRowHitRate                36.86                       # Row buffer hit rate for writes
system.mem_ctrls.avgGap                     420882.57                       # Average gap between requests
system.mem_ctrls.pageHitRate                    40.82                       # Row buffer hit rate, read and write combined
system.mem_ctrls_0.actEnergy               6075374760                       # Energy for activate commands per rank (pJ)
system.mem_ctrls_0.preEnergy               3314936625                       # Energy for precharge commands per rank (pJ)
system.mem_ctrls_0.readEnergy              7612433400                       # Energy for read commands per rank (pJ)
system.mem_ctrls_0.writeEnergy             2504319120                       # Energy for write commands per rank (pJ)
system.mem_ctrls_0.refreshEnergy          75195681600                       # Energy for refresh commands per rank (pJ)
system.mem_ctrls_0.actBackEnergy         382392199845                       # Energy for active background per rank (pJ)
system.mem_ctrls_0.preBackEnergy         355333348500                       # Energy for precharge background per rank (pJ)
system.mem_ctrls_0.totalEnergy           832428293850                       # Total energy per rank (pJ)
system.mem_ctrls_0.averagePower            723.048941                       # Core power per rank (mW)
system.mem_ctrls_0.memoryStateTime::IDLE 588861240500                       # Time in different power states
system.mem_ctrls_0.memoryStateTime::REF   38443600000                       # Time in different power states
system.mem_ctrls_0.memoryStateTime::PRE_PDN            0                       # Time in different power states
system.mem_ctrls_0.memoryStateTime::ACT  523970344500                       # Time in different power states
system.mem_ctrls_0.memoryStateTime::ACT_PDN            0                       # Time in different power states
system.mem_ctrls_1.actEnergy               6089217120                       # Energy for activate commands per rank (pJ)
system.mem_ctrls_1.preEnergy               3322489500                       # Energy for precharge commands per rank (pJ)
system.mem_ctrls_1.readEnergy              7505347200                       # Energy for read commands per rank (pJ)
system.mem_ctrls_1.writeEnergy             2553891120                       # Energy for write commands per rank (pJ)
system.mem_ctrls_1.refreshEnergy          75195681600                       # Energy for refresh commands per rank (pJ)
system.mem_ctrls_1.actBackEnergy         383642029440                       # Energy for active background per rank (pJ)
system.mem_ctrls_1.preBackEnergy         354237006750                       # Energy for precharge background per rank (pJ)
system.mem_ctrls_1.totalEnergy           832545662730                       # Total energy per rank (pJ)
system.mem_ctrls_1.averagePower            723.150888                       # Core power per rank (mW)
system.mem_ctrls_1.memoryStateTime::IDLE 587014873750                       # Time in different power states
system.mem_ctrls_1.memoryStateTime::REF   38443600000                       # Time in different power states
system.mem_ctrls_1.memoryStateTime::PRE_PDN            0                       # Time in different power states
system.mem_ctrls_1.memoryStateTime::ACT  525816711250                       # Time in different power states
system.mem_ctrls_1.memoryStateTime::ACT_PDN            0                       # Time in different power states
system.cpu_voltage_domain.voltage                   1                       # Voltage in Volts
system.cpu_clk_domain.clock                       500                       # Clock period in ticks
system.cpu.apic_clk_domain.clock                 8000                       # Clock period in ticks
system.cpu.workload.num_syscalls                   86                       # Number of system calls
system.cpu.numCycles                       2302550915                       # number of cpu cycles simulated
system.cpu.numWorkItemsStarted                      0                       # number of work items this cpu started
system.cpu.numWorkItemsCompleted                    0                       # number of work items this cpu completed
system.cpu.committedInsts                   500000001                       # Number of instructions committed
system.cpu.committedOps                     730450447                       # Number of ops (including micro ops) committed
system.cpu.num_int_alu_accesses             729688907                       # Number of integer alu accesses
system.cpu.num_fp_alu_accesses                    663                       # Number of float alu accesses
system.cpu.num_func_calls                     1453961                       # number of times a function call or return occured
system.cpu.num_conditional_control_insts     31770496                       # number of instructions that are conditional controls
system.cpu.num_int_insts                    729688907                       # number of integer instructions
system.cpu.num_fp_insts                           663                       # number of float instructions
system.cpu.num_int_register_reads          1698743410                       # number of times the integer registers were read
system.cpu.num_int_register_writes          621892952                       # number of times the integer registers were written
system.cpu.num_fp_register_reads                 1009                       # number of times the floating registers were read
system.cpu.num_fp_register_writes                 429                       # number of times the floating registers were written
system.cpu.num_cc_register_reads            180840558                       # number of times the CC registers were read
system.cpu.num_cc_register_writes           276245127                       # number of times the CC registers were written
system.cpu.num_mem_refs                     295985459                       # number of memory refs
system.cpu.num_load_insts                   225946750                       # Number of load instructions
system.cpu.num_store_insts                   70038709                       # Number of store instructions
system.cpu.num_idle_cycles                          0                       # Number of idle cycles
system.cpu.num_busy_cycles                 2302550915                       # Number of busy cycles
system.cpu.not_idle_fraction                        1                       # Percentage of non-idle cycles
system.cpu.idle_fraction                            0                       # Percentage of idle cycles
system.cpu.Branches                          37843296                       # Number of branches fetched
system.cpu.op_class::No_OpClass                 94739      0.01%      0.01% # Class of executed instruction
system.cpu.op_class::IntAlu                 434349070     59.46%     59.48% # Class of executed instruction
system.cpu.op_class::IntMult                    20662      0.00%     59.48% # Class of executed instruction
system.cpu.op_class::IntDiv                       119      0.00%     59.48% # Class of executed instruction
system.cpu.op_class::FloatAdd                     398      0.00%     59.48% # Class of executed instruction
system.cpu.op_class::FloatCmp                       0      0.00%     59.48% # Class of executed instruction
system.cpu.op_class::FloatCvt                       0      0.00%     59.48% # Class of executed instruction
system.cpu.op_class::FloatMult                      0      0.00%     59.48% # Class of executed instruction
system.cpu.op_class::FloatDiv                       0      0.00%     59.48% # Class of executed instruction
system.cpu.op_class::FloatSqrt                      0      0.00%     59.48% # Class of executed instruction
system.cpu.op_class::SimdAdd                        0      0.00%     59.48% # Class of executed instruction
system.cpu.op_class::SimdAddAcc                     0      0.00%     59.48% # Class of executed instruction
system.cpu.op_class::SimdAlu                        0      0.00%     59.48% # Class of executed instruction
system.cpu.op_class::SimdCmp                        0      0.00%     59.48% # Class of executed instruction
system.cpu.op_class::SimdCvt                        0      0.00%     59.48% # Class of executed instruction
system.cpu.op_class::SimdMisc                       0      0.00%     59.48% # Class of executed instruction
system.cpu.op_class::SimdMult                       0      0.00%     59.48% # Class of executed instruction
system.cpu.op_class::SimdMultAcc                    0      0.00%     59.48% # Class of executed instruction
system.cpu.op_class::SimdShift                      0      0.00%     59.48% # Class of executed instruction
system.cpu.op_class::SimdShiftAcc                   0      0.00%     59.48% # Class of executed instruction
system.cpu.op_class::SimdSqrt                       0      0.00%     59.48% # Class of executed instruction
system.cpu.op_class::SimdFloatAdd                   0      0.00%     59.48% # Class of executed instruction
system.cpu.op_class::SimdFloatAlu                   0      0.00%     59.48% # Class of executed instruction
system.cpu.op_class::SimdFloatCmp                   0      0.00%     59.48% # Class of executed instruction
system.cpu.op_class::SimdFloatCvt                   0      0.00%     59.48% # Class of executed instruction
system.cpu.op_class::SimdFloatDiv                   0      0.00%     59.48% # Class of executed instruction
system.cpu.op_class::SimdFloatMisc                  0      0.00%     59.48% # Class of executed instruction
system.cpu.op_class::SimdFloatMult                  0      0.00%     59.48% # Class of executed instruction
system.cpu.op_class::SimdFloatMultAcc               0      0.00%     59.48% # Class of executed instruction
system.cpu.op_class::SimdFloatSqrt                  0      0.00%     59.48% # Class of executed instruction
system.cpu.op_class::MemRead                225946750     30.93%     90.41% # Class of executed instruction
system.cpu.op_class::MemWrite                70038709      9.59%    100.00% # Class of executed instruction
system.cpu.op_class::IprAccess                      0      0.00%    100.00% # Class of executed instruction
system.cpu.op_class::InstPrefetch                   0      0.00%    100.00% # Class of executed instruction
system.cpu.op_class::total                  730450447                       # Class of executed instruction
system.cpu.dcache.tags.replacements           2042575                       # number of replacements
system.cpu.dcache.tags.tagsinuse          2042.676518                       # Cycle average of tags in use
system.cpu.dcache.tags.total_refs           293940844                       # Total number of references to valid blocks.
system.cpu.dcache.tags.sampled_refs           2044623                       # Sample count of references to valid blocks.
system.cpu.dcache.tags.avg_refs            143.762857                       # Average number of references to valid blocks.
system.cpu.dcache.tags.warmup_cycle        3509436500                       # Cycle when the warmup percentage was hit.
system.cpu.dcache.tags.occ_blocks::cpu.data  2042.676518                       # Average occupied blocks per requestor
system.cpu.dcache.tags.occ_percent::cpu.data     0.997401                       # Average percentage of cache occupancy
system.cpu.dcache.tags.occ_percent::total     0.997401                       # Average percentage of cache occupancy
system.cpu.dcache.tags.occ_task_id_blocks::1024         2048                       # Occupied blocks per task id
system.cpu.dcache.tags.age_task_id_blocks_1024::1            2                       # Occupied blocks per task id
system.cpu.dcache.tags.age_task_id_blocks_1024::2           16                       # Occupied blocks per task id
system.cpu.dcache.tags.age_task_id_blocks_1024::3         1420                       # Occupied blocks per task id
system.cpu.dcache.tags.age_task_id_blocks_1024::4          610                       # Occupied blocks per task id
system.cpu.dcache.tags.occ_task_id_percent::1024            1                       # Percentage of cache occupancy per task id
system.cpu.dcache.tags.tag_accesses         594015557                       # Number of tag accesses
system.cpu.dcache.tags.data_accesses        594015557                       # Number of data accesses
system.cpu.dcache.ReadReq_hits::cpu.data    224491119                       # number of ReadReq hits
system.cpu.dcache.ReadReq_hits::total       224491119                       # number of ReadReq hits
system.cpu.dcache.WriteReq_hits::cpu.data     69449725                       # number of WriteReq hits
system.cpu.dcache.WriteReq_hits::total       69449725                       # number of WriteReq hits
system.cpu.dcache.demand_hits::cpu.data     293940844                       # number of demand (read+write) hits
system.cpu.dcache.demand_hits::total        293940844                       # number of demand (read+write) hits
system.cpu.dcache.overall_hits::cpu.data    293940844                       # number of overall hits
system.cpu.dcache.overall_hits::total       293940844                       # number of overall hits
system.cpu.dcache.ReadReq_misses::cpu.data      1439254                       # number of ReadReq misses
system.cpu.dcache.ReadReq_misses::total       1439254                       # number of ReadReq misses
system.cpu.dcache.WriteReq_misses::cpu.data       588985                       # number of WriteReq misses
system.cpu.dcache.WriteReq_misses::total       588985                       # number of WriteReq misses
system.cpu.dcache.SoftPFReq_misses::cpu.data        16384                       # number of SoftPFReq misses
system.cpu.dcache.SoftPFReq_misses::total        16384                       # number of SoftPFReq misses
system.cpu.dcache.demand_misses::cpu.data      2028239                       # number of demand (read+write) misses
system.cpu.dcache.demand_misses::total        2028239                       # number of demand (read+write) misses
system.cpu.dcache.overall_misses::cpu.data      2044623                       # number of overall misses
system.cpu.dcache.overall_misses::total       2044623                       # number of overall misses
system.cpu.dcache.ReadReq_miss_latency::cpu.data 118484491500                       # number of ReadReq miss cycles
system.cpu.dcache.ReadReq_miss_latency::total 118484491500                       # number of ReadReq miss cycles
system.cpu.dcache.WriteReq_miss_latency::cpu.data  51209906500                       # number of WriteReq miss cycles
system.cpu.dcache.WriteReq_miss_latency::total  51209906500                       # number of WriteReq miss cycles
system.cpu.dcache.demand_miss_latency::cpu.data 169694398000                       # number of demand (read+write) miss cycles
system.cpu.dcache.demand_miss_latency::total 169694398000                       # number of demand (read+write) miss cycles
system.cpu.dcache.overall_miss_latency::cpu.data 169694398000                       # number of overall miss cycles
system.cpu.dcache.overall_miss_latency::total 169694398000                       # number of overall miss cycles
system.cpu.dcache.ReadReq_accesses::cpu.data    225930373                       # number of ReadReq accesses(hits+misses)
system.cpu.dcache.ReadReq_accesses::total    225930373                       # number of ReadReq accesses(hits+misses)
system.cpu.dcache.WriteReq_accesses::cpu.data     70038710                       # number of WriteReq accesses(hits+misses)
system.cpu.dcache.WriteReq_accesses::total     70038710                       # number of WriteReq accesses(hits+misses)
system.cpu.dcache.SoftPFReq_accesses::cpu.data        16384                       # number of SoftPFReq accesses(hits+misses)
system.cpu.dcache.SoftPFReq_accesses::total        16384                       # number of SoftPFReq accesses(hits+misses)
system.cpu.dcache.demand_accesses::cpu.data    295969083                       # number of demand (read+write) accesses
system.cpu.dcache.demand_accesses::total    295969083                       # number of demand (read+write) accesses
system.cpu.dcache.overall_accesses::cpu.data    295985467                       # number of overall (read+write) accesses
system.cpu.dcache.overall_accesses::total    295985467                       # number of overall (read+write) accesses
system.cpu.dcache.ReadReq_miss_rate::cpu.data     0.006370                       # miss rate for ReadReq accesses
system.cpu.dcache.ReadReq_miss_rate::total     0.006370                       # miss rate for ReadReq accesses
system.cpu.dcache.WriteReq_miss_rate::cpu.data     0.008409                       # miss rate for WriteReq accesses
system.cpu.dcache.WriteReq_miss_rate::total     0.008409                       # miss rate for WriteReq accesses
system.cpu.dcache.SoftPFReq_miss_rate::cpu.data            1                       # miss rate for SoftPFReq accesses
system.cpu.dcache.SoftPFReq_miss_rate::total            1                       # miss rate for SoftPFReq accesses
system.cpu.dcache.demand_miss_rate::cpu.data     0.006853                       # miss rate for demand accesses
system.cpu.dcache.demand_miss_rate::total     0.006853                       # miss rate for demand accesses
system.cpu.dcache.overall_miss_rate::cpu.data     0.006908                       # miss rate for overall accesses
system.cpu.dcache.overall_miss_rate::total     0.006908                       # miss rate for overall accesses
system.cpu.dcache.ReadReq_avg_miss_latency::cpu.data 82323.545045                       # average ReadReq miss latency
system.cpu.dcache.ReadReq_avg_miss_latency::total 82323.545045                       # average ReadReq miss latency
system.cpu.dcache.WriteReq_avg_miss_latency::cpu.data 86946.028337                       # average WriteReq miss latency
system.cpu.dcache.WriteReq_avg_miss_latency::total 86946.028337                       # average WriteReq miss latency
system.cpu.dcache.demand_avg_miss_latency::cpu.data 83665.878627                       # average overall miss latency
system.cpu.dcache.demand_avg_miss_latency::total 83665.878627                       # average overall miss latency
system.cpu.dcache.overall_avg_miss_latency::cpu.data 82995.446104                       # average overall miss latency
system.cpu.dcache.overall_avg_miss_latency::total 82995.446104                       # average overall miss latency
system.cpu.dcache.blocked_cycles::no_mshrs       314279                       # number of cycles access was blocked
system.cpu.dcache.blocked_cycles::no_targets            0                       # number of cycles access was blocked
system.cpu.dcache.blocked::no_mshrs              4874                       # number of cycles access was blocked
system.cpu.dcache.blocked::no_targets               0                       # number of cycles access was blocked
system.cpu.dcache.avg_blocked_cycles::no_mshrs    64.480714                       # average number of cycles each access was blocked
system.cpu.dcache.avg_blocked_cycles::no_targets          nan                       # average number of cycles each access was blocked
system.cpu.dcache.fast_writes                       0                       # number of fast writes performed
system.cpu.dcache.cache_copies                      0                       # number of cache copies performed
system.cpu.dcache.writebacks::writebacks       874308                       # number of writebacks
system.cpu.dcache.writebacks::total            874308                       # number of writebacks
system.cpu.dcache.ReadReq_mshr_misses::cpu.data      1439254                       # number of ReadReq MSHR misses
system.cpu.dcache.ReadReq_mshr_misses::total      1439254                       # number of ReadReq MSHR misses
system.cpu.dcache.WriteReq_mshr_misses::cpu.data       588985                       # number of WriteReq MSHR misses
system.cpu.dcache.WriteReq_mshr_misses::total       588985                       # number of WriteReq MSHR misses
system.cpu.dcache.SoftPFReq_mshr_misses::cpu.data        16384                       # number of SoftPFReq MSHR misses
system.cpu.dcache.SoftPFReq_mshr_misses::total        16384                       # number of SoftPFReq MSHR misses
system.cpu.dcache.demand_mshr_misses::cpu.data      2028239                       # number of demand (read+write) MSHR misses
system.cpu.dcache.demand_mshr_misses::total      2028239                       # number of demand (read+write) MSHR misses
system.cpu.dcache.overall_mshr_misses::cpu.data      2044623                       # number of overall MSHR misses
system.cpu.dcache.overall_mshr_misses::total      2044623                       # number of overall MSHR misses
system.cpu.dcache.ReadReq_mshr_miss_latency::cpu.data 117045237500                       # number of ReadReq MSHR miss cycles
system.cpu.dcache.ReadReq_mshr_miss_latency::total 117045237500                       # number of ReadReq MSHR miss cycles
system.cpu.dcache.WriteReq_mshr_miss_latency::cpu.data  50620921500                       # number of WriteReq MSHR miss cycles
system.cpu.dcache.WriteReq_mshr_miss_latency::total  50620921500                       # number of WriteReq MSHR miss cycles
system.cpu.dcache.SoftPFReq_mshr_miss_latency::cpu.data   1436033493                       # number of SoftPFReq MSHR miss cycles
system.cpu.dcache.SoftPFReq_mshr_miss_latency::total   1436033493                       # number of SoftPFReq MSHR miss cycles
system.cpu.dcache.demand_mshr_miss_latency::cpu.data 167666159000                       # number of demand (read+write) MSHR miss cycles
system.cpu.dcache.demand_mshr_miss_latency::total 167666159000                       # number of demand (read+write) MSHR miss cycles
system.cpu.dcache.overall_mshr_miss_latency::cpu.data 169102192493                       # number of overall MSHR miss cycles
system.cpu.dcache.overall_mshr_miss_latency::total 169102192493                       # number of overall MSHR miss cycles
system.cpu.dcache.ReadReq_mshr_miss_rate::cpu.data     0.006370                       # mshr miss rate for ReadReq accesses
system.cpu.dcache.ReadReq_mshr_miss_rate::total     0.006370                       # mshr miss rate for ReadReq accesses
system.cpu.dcache.WriteReq_mshr_miss_rate::cpu.data     0.008409                       # mshr miss rate for WriteReq accesses
system.cpu.dcache.WriteReq_mshr_miss_rate::total     0.008409                       # mshr miss rate for WriteReq accesses
system.cpu.dcache.SoftPFReq_mshr_miss_rate::cpu.data            1                       # mshr miss rate for SoftPFReq accesses
system.cpu.dcache.SoftPFReq_mshr_miss_rate::total            1                       # mshr miss rate for SoftPFReq accesses
system.cpu.dcache.demand_mshr_miss_rate::cpu.data     0.006853                       # mshr miss rate for demand accesses
system.cpu.dcache.demand_mshr_miss_rate::total     0.006853                       # mshr miss rate for demand accesses
system.cpu.dcache.overall_mshr_miss_rate::cpu.data     0.006908                       # mshr miss rate for overall accesses
system.cpu.dcache.overall_mshr_miss_rate::total     0.006908                       # mshr miss rate for overall accesses
system.cpu.dcache.ReadReq_avg_mshr_miss_latency::cpu.data 81323.545045                       # average ReadReq mshr miss latency
system.cpu.dcache.ReadReq_avg_mshr_miss_latency::total 81323.545045                       # average ReadReq mshr miss latency
system.cpu.dcache.WriteReq_avg_mshr_miss_latency::cpu.data 85946.028337                       # average WriteReq mshr miss latency
system.cpu.dcache.WriteReq_avg_mshr_miss_latency::total 85946.028337                       # average WriteReq mshr miss latency
system.cpu.dcache.SoftPFReq_avg_mshr_miss_latency::cpu.data 87648.528625                       # average SoftPFReq mshr miss latency
system.cpu.dcache.SoftPFReq_avg_mshr_miss_latency::total 87648.528625                       # average SoftPFReq mshr miss latency
system.cpu.dcache.demand_avg_mshr_miss_latency::cpu.data 82665.878627                       # average overall mshr miss latency
system.cpu.dcache.demand_avg_mshr_miss_latency::total 82665.878627                       # average overall mshr miss latency
system.cpu.dcache.overall_avg_mshr_miss_latency::cpu.data 82705.805663                       # average overall mshr miss latency
system.cpu.dcache.overall_avg_mshr_miss_latency::total 82705.805663                       # average overall mshr miss latency
system.cpu.dcache.no_allocate_misses                0                       # Number of misses that were no-allocate
system.cpu.dtb_walker_cache.tags.replacements            0                       # number of replacements
system.cpu.dtb_walker_cache.tags.tagsinuse            0                       # Cycle average of tags in use
system.cpu.dtb_walker_cache.tags.total_refs            0                       # Total number of references to valid blocks.
system.cpu.dtb_walker_cache.tags.sampled_refs            0                       # Sample count of references to valid blocks.
system.cpu.dtb_walker_cache.tags.avg_refs          nan                       # Average number of references to valid blocks.
system.cpu.dtb_walker_cache.tags.warmup_cycle            0                       # Cycle when the warmup percentage was hit.
system.cpu.dtb_walker_cache.tags.tag_accesses            0                       # Number of tag accesses
system.cpu.dtb_walker_cache.tags.data_accesses            0                       # Number of data accesses
system.cpu.dtb_walker_cache.blocked_cycles::no_mshrs            0                       # number of cycles access was blocked
system.cpu.dtb_walker_cache.blocked_cycles::no_targets            0                       # number of cycles access was blocked
system.cpu.dtb_walker_cache.blocked::no_mshrs            0                       # number of cycles access was blocked
system.cpu.dtb_walker_cache.blocked::no_targets            0                       # number of cycles access was blocked
system.cpu.dtb_walker_cache.avg_blocked_cycles::no_mshrs          nan                       # average number of cycles each access was blocked
system.cpu.dtb_walker_cache.avg_blocked_cycles::no_targets          nan                       # average number of cycles each access was blocked
system.cpu.dtb_walker_cache.fast_writes             0                       # number of fast writes performed
system.cpu.dtb_walker_cache.cache_copies            0                       # number of cache copies performed
system.cpu.dtb_walker_cache.no_allocate_misses            0                       # Number of misses that were no-allocate
system.cpu.icache.tags.replacements                45                       # number of replacements
system.cpu.icache.tags.tagsinuse           662.167823                       # Cycle average of tags in use
system.cpu.icache.tags.total_refs           687396869                       # Total number of references to valid blocks.
system.cpu.icache.tags.sampled_refs               994                       # Sample count of references to valid blocks.
system.cpu.icache.tags.avg_refs          691546.145875                       # Average number of references to valid blocks.
system.cpu.icache.tags.warmup_cycle                 0                       # Cycle when the warmup percentage was hit.
system.cpu.icache.tags.occ_blocks::cpu.inst   662.167823                       # Average occupied blocks per requestor
system.cpu.icache.tags.occ_percent::cpu.inst     0.323324                       # Average percentage of cache occupancy
system.cpu.icache.tags.occ_percent::total     0.323324                       # Average percentage of cache occupancy
system.cpu.icache.tags.occ_task_id_blocks::1024          949                       # Occupied blocks per task id
system.cpu.icache.tags.age_task_id_blocks_1024::1            7                       # Occupied blocks per task id
system.cpu.icache.tags.age_task_id_blocks_1024::3           25                       # Occupied blocks per task id
system.cpu.icache.tags.age_task_id_blocks_1024::4          917                       # Occupied blocks per task id
system.cpu.icache.tags.occ_task_id_percent::1024     0.463379                       # Percentage of cache occupancy per task id
system.cpu.icache.tags.tag_accesses        1374796720                       # Number of tag accesses
system.cpu.icache.tags.data_accesses       1374796720                       # Number of data accesses
system.cpu.icache.ReadReq_hits::cpu.inst    687396869                       # number of ReadReq hits
system.cpu.icache.ReadReq_hits::total       687396869                       # number of ReadReq hits
system.cpu.icache.demand_hits::cpu.inst     687396869                       # number of demand (read+write) hits
system.cpu.icache.demand_hits::total        687396869                       # number of demand (read+write) hits
system.cpu.icache.overall_hits::cpu.inst    687396869                       # number of overall hits
system.cpu.icache.overall_hits::total       687396869                       # number of overall hits
system.cpu.icache.ReadReq_misses::cpu.inst          994                       # number of ReadReq misses
system.cpu.icache.ReadReq_misses::total           994                       # number of ReadReq misses
system.cpu.icache.demand_misses::cpu.inst          994                       # number of demand (read+write) misses
system.cpu.icache.demand_misses::total            994                       # number of demand (read+write) misses
system.cpu.icache.overall_misses::cpu.inst          994                       # number of overall misses
system.cpu.icache.overall_misses::total           994                       # number of overall misses
system.cpu.icache.ReadReq_miss_latency::cpu.inst     77121500                       # number of ReadReq miss cycles
system.cpu.icache.ReadReq_miss_latency::total     77121500                       # number of ReadReq miss cycles
system.cpu.icache.demand_miss_latency::cpu.inst     77121500                       # number of demand (read+write) miss cycles
system.cpu.icache.demand_miss_latency::total     77121500                       # number of demand (read+write) miss cycles
system.cpu.icache.overall_miss_latency::cpu.inst     77121500                       # number of overall miss cycles
system.cpu.icache.overall_miss_latency::total     77121500                       # number of overall miss cycles
system.cpu.icache.ReadReq_accesses::cpu.inst    687397863                       # number of ReadReq accesses(hits+misses)
system.cpu.icache.ReadReq_accesses::total    687397863                       # number of ReadReq accesses(hits+misses)
system.cpu.icache.demand_accesses::cpu.inst    687397863                       # number of demand (read+write) accesses
system.cpu.icache.demand_accesses::total    687397863                       # number of demand (read+write) accesses
system.cpu.icache.overall_accesses::cpu.inst    687397863                       # number of overall (read+write) accesses
system.cpu.icache.overall_accesses::total    687397863                       # number of overall (read+write) accesses
system.cpu.icache.ReadReq_miss_rate::cpu.inst     0.000001                       # miss rate for ReadReq accesses
system.cpu.icache.ReadReq_miss_rate::total     0.000001                       # miss rate for ReadReq accesses
system.cpu.icache.demand_miss_rate::cpu.inst     0.000001                       # miss rate for demand accesses
system.cpu.icache.demand_miss_rate::total     0.000001                       # miss rate for demand accesses
system.cpu.icache.overall_miss_rate::cpu.inst     0.000001                       # miss rate for overall accesses
system.cpu.icache.overall_miss_rate::total     0.000001                       # miss rate for overall accesses
system.cpu.icache.ReadReq_avg_miss_latency::cpu.inst 77587.022133                       # average ReadReq miss latency
system.cpu.icache.ReadReq_avg_miss_latency::total 77587.022133                       # average ReadReq miss latency
system.cpu.icache.demand_avg_miss_latency::cpu.inst 77587.022133                       # average overall miss latency
system.cpu.icache.demand_avg_miss_latency::total 77587.022133                       # average overall miss latency
system.cpu.icache.overall_avg_miss_latency::cpu.inst 77587.022133                       # average overall miss latency
system.cpu.icache.overall_avg_miss_latency::total 77587.022133                       # average overall miss latency
system.cpu.icache.blocked_cycles::no_mshrs            0                       # number of cycles access was blocked
system.cpu.icache.blocked_cycles::no_targets            0                       # number of cycles access was blocked
system.cpu.icache.blocked::no_mshrs                 0                       # number of cycles access was blocked
system.cpu.icache.blocked::no_targets               0                       # number of cycles access was blocked
system.cpu.icache.avg_blocked_cycles::no_mshrs          nan                       # average number of cycles each access was blocked
system.cpu.icache.avg_blocked_cycles::no_targets          nan                       # average number of cycles each access was blocked
system.cpu.icache.fast_writes                       0                       # number of fast writes performed
system.cpu.icache.cache_copies                      0                       # number of cache copies performed
system.cpu.icache.writebacks::writebacks           45                       # number of writebacks
system.cpu.icache.writebacks::total                45                       # number of writebacks
system.cpu.icache.ReadReq_mshr_misses::cpu.inst          994                       # number of ReadReq MSHR misses
system.cpu.icache.ReadReq_mshr_misses::total          994                       # number of ReadReq MSHR misses
system.cpu.icache.demand_mshr_misses::cpu.inst          994                       # number of demand (read+write) MSHR misses
system.cpu.icache.demand_mshr_misses::total          994                       # number of demand (read+write) MSHR misses
system.cpu.icache.overall_mshr_misses::cpu.inst          994                       # number of overall MSHR misses
system.cpu.icache.overall_mshr_misses::total          994                       # number of overall MSHR misses
system.cpu.icache.ReadReq_mshr_miss_latency::cpu.inst     76127500                       # number of ReadReq MSHR miss cycles
system.cpu.icache.ReadReq_mshr_miss_latency::total     76127500                       # number of ReadReq MSHR miss cycles
system.cpu.icache.demand_mshr_miss_latency::cpu.inst     76127500                       # number of demand (read+write) MSHR miss cycles
system.cpu.icache.demand_mshr_miss_latency::total     76127500                       # number of demand (read+write) MSHR miss cycles
system.cpu.icache.overall_mshr_miss_latency::cpu.inst     76127500                       # number of overall MSHR miss cycles
system.cpu.icache.overall_mshr_miss_latency::total     76127500                       # number of overall MSHR miss cycles
system.cpu.icache.ReadReq_mshr_miss_rate::cpu.inst     0.000001                       # mshr miss rate for ReadReq accesses
system.cpu.icache.ReadReq_mshr_miss_rate::total     0.000001                       # mshr miss rate for ReadReq accesses
system.cpu.icache.demand_mshr_miss_rate::cpu.inst     0.000001                       # mshr miss rate for demand accesses
system.cpu.icache.demand_mshr_miss_rate::total     0.000001                       # mshr miss rate for demand accesses
system.cpu.icache.overall_mshr_miss_rate::cpu.inst     0.000001                       # mshr miss rate for overall accesses
system.cpu.icache.overall_mshr_miss_rate::total     0.000001                       # mshr miss rate for overall accesses
system.cpu.icache.ReadReq_avg_mshr_miss_latency::cpu.inst 76587.022133                       # average ReadReq mshr miss latency
system.cpu.icache.ReadReq_avg_mshr_miss_latency::total 76587.022133                       # average ReadReq mshr miss latency
system.cpu.icache.demand_avg_mshr_miss_latency::cpu.inst 76587.022133                       # average overall mshr miss latency
system.cpu.icache.demand_avg_mshr_miss_latency::total 76587.022133                       # average overall mshr miss latency
system.cpu.icache.overall_avg_mshr_miss_latency::cpu.inst 76587.022133                       # average overall mshr miss latency
system.cpu.icache.overall_avg_mshr_miss_latency::total 76587.022133                       # average overall mshr miss latency
system.cpu.icache.no_allocate_misses                0                       # Number of misses that were no-allocate
system.cpu.itb_walker_cache.tags.replacements            0                       # number of replacements
system.cpu.itb_walker_cache.tags.tagsinuse            0                       # Cycle average of tags in use
system.cpu.itb_walker_cache.tags.total_refs            0                       # Total number of references to valid blocks.
system.cpu.itb_walker_cache.tags.sampled_refs            0                       # Sample count of references to valid blocks.
system.cpu.itb_walker_cache.tags.avg_refs          nan                       # Average number of references to valid blocks.
system.cpu.itb_walker_cache.tags.warmup_cycle            0                       # Cycle when the warmup percentage was hit.
system.cpu.itb_walker_cache.tags.tag_accesses            0                       # Number of tag accesses
system.cpu.itb_walker_cache.tags.data_accesses            0                       # Number of data accesses
system.cpu.itb_walker_cache.blocked_cycles::no_mshrs            0                       # number of cycles access was blocked
system.cpu.itb_walker_cache.blocked_cycles::no_targets            0                       # number of cycles access was blocked
system.cpu.itb_walker_cache.blocked::no_mshrs            0                       # number of cycles access was blocked
system.cpu.itb_walker_cache.blocked::no_targets            0                       # number of cycles access was blocked
system.cpu.itb_walker_cache.avg_blocked_cycles::no_mshrs          nan                       # average number of cycles each access was blocked
system.cpu.itb_walker_cache.avg_blocked_cycles::no_targets          nan                       # average number of cycles each access was blocked
system.cpu.itb_walker_cache.fast_writes             0                       # number of fast writes performed
system.cpu.itb_walker_cache.cache_copies            0                       # number of cache copies performed
system.cpu.itb_walker_cache.no_allocate_misses            0                       # Number of misses that were no-allocate
system.l2.tags.replacements                   2238336                       # number of replacements
system.l2.tags.tagsinuse                   471.055261                       # Cycle average of tags in use
system.l2.tags.total_refs                       92303                       # Total number of references to valid blocks.
system.l2.tags.sampled_refs                   2238682                       # Sample count of references to valid blocks.
system.l2.tags.avg_refs                      0.041231                       # Average number of references to valid blocks.
system.l2.tags.warmup_cycle                3472097000                       # Cycle when the warmup percentage was hit.
system.l2.tags.occ_blocks::writebacks      213.146087                       # Average occupied blocks per requestor
system.l2.tags.occ_blocks::cpu.inst          0.983600                       # Average occupied blocks per requestor
system.l2.tags.occ_blocks::cpu.data        256.925574                       # Average occupied blocks per requestor
system.l2.tags.occ_percent::writebacks       0.416301                       # Average percentage of cache occupancy
system.l2.tags.occ_percent::cpu.inst         0.001921                       # Average percentage of cache occupancy
system.l2.tags.occ_percent::cpu.data         0.501808                       # Average percentage of cache occupancy
system.l2.tags.occ_percent::total            0.920030                       # Average percentage of cache occupancy
system.l2.tags.occ_task_id_blocks::1024           346                       # Occupied blocks per task id
system.l2.tags.age_task_id_blocks_1024::1            9                       # Occupied blocks per task id
system.l2.tags.age_task_id_blocks_1024::2           11                       # Occupied blocks per task id
system.l2.tags.age_task_id_blocks_1024::3          326                       # Occupied blocks per task id
system.l2.tags.occ_task_id_percent::1024     0.675781                       # Percentage of cache occupancy per task id
system.l2.tags.tag_accesses                   6915903                       # Number of tag accesses
system.l2.tags.data_accesses                  6915903                       # Number of data accesses
system.l2.WritebackDirty_hits::writebacks       874308                       # number of WritebackDirty hits
system.l2.WritebackDirty_hits::total           874308                       # number of WritebackDirty hits
system.l2.WritebackClean_hits::writebacks           45                       # number of WritebackClean hits
system.l2.WritebackClean_hits::total               45                       # number of WritebackClean hits
system.l2.ReadExReq_hits::cpu.data              26645                       # number of ReadExReq hits
system.l2.ReadExReq_hits::total                 26645                       # number of ReadExReq hits
system.l2.ReadSharedReq_hits::cpu.data          65658                       # number of ReadSharedReq hits
system.l2.ReadSharedReq_hits::total             65658                       # number of ReadSharedReq hits
system.l2.demand_hits::cpu.data                 92303                       # number of demand (read+write) hits
system.l2.demand_hits::total                    92303                       # number of demand (read+write) hits
system.l2.overall_hits::cpu.data                92303                       # number of overall hits
system.l2.overall_hits::total                   92303                       # number of overall hits
system.l2.ReadExReq_misses::cpu.data           562340                       # number of ReadExReq misses
system.l2.ReadExReq_misses::total              562340                       # number of ReadExReq misses
system.l2.ReadCleanReq_misses::cpu.inst           994                       # number of ReadCleanReq misses
system.l2.ReadCleanReq_misses::total              994                       # number of ReadCleanReq misses
system.l2.ReadSharedReq_misses::cpu.data      1389980                       # number of ReadSharedReq misses
system.l2.ReadSharedReq_misses::total         1389980                       # number of ReadSharedReq misses
system.l2.demand_misses::cpu.inst                 994                       # number of demand (read+write) misses
system.l2.demand_misses::cpu.data             1952320                       # number of demand (read+write) misses
system.l2.demand_misses::total                1953314                       # number of demand (read+write) misses
system.l2.overall_misses::cpu.inst                994                       # number of overall misses
system.l2.overall_misses::cpu.data            1952320                       # number of overall misses
system.l2.overall_misses::total               1953314                       # number of overall misses
system.l2.ReadExReq_miss_latency::cpu.data  49457670500                       # number of ReadExReq miss cycles
system.l2.ReadExReq_miss_latency::total   49457670500                       # number of ReadExReq miss cycles
system.l2.ReadCleanReq_miss_latency::cpu.inst     74636500                       # number of ReadCleanReq miss cycles
system.l2.ReadCleanReq_miss_latency::total     74636500                       # number of ReadCleanReq miss cycles
system.l2.ReadSharedReq_miss_latency::cpu.data 115608368500                       # number of ReadSharedReq miss cycles
system.l2.ReadSharedReq_miss_latency::total 115608368500                       # number of ReadSharedReq miss cycles
system.l2.demand_miss_latency::cpu.inst      74636500                       # number of demand (read+write) miss cycles
system.l2.demand_miss_latency::cpu.data  165066039000                       # number of demand (read+write) miss cycles
system.l2.demand_miss_latency::total     165140675500                       # number of demand (read+write) miss cycles
system.l2.overall_miss_latency::cpu.inst     74636500                       # number of overall miss cycles
system.l2.overall_miss_latency::cpu.data 165066039000                       # number of overall miss cycles
system.l2.overall_miss_latency::total    165140675500                       # number of overall miss cycles
system.l2.WritebackDirty_accesses::writebacks       874308                       # number of WritebackDirty accesses(hits+misses)
system.l2.WritebackDirty_accesses::total       874308                       # number of WritebackDirty accesses(hits+misses)
system.l2.WritebackClean_accesses::writebacks           45                       # number of WritebackClean accesses(hits+misses)
system.l2.WritebackClean_accesses::total           45                       # number of WritebackClean accesses(hits+misses)
system.l2.ReadExReq_accesses::cpu.data         588985                       # number of ReadExReq accesses(hits+misses)
system.l2.ReadExReq_accesses::total            588985                       # number of ReadExReq accesses(hits+misses)
system.l2.ReadCleanReq_accesses::cpu.inst          994                       # number of ReadCleanReq accesses(hits+misses)
system.l2.ReadCleanReq_accesses::total            994                       # number of ReadCleanReq accesses(hits+misses)
system.l2.ReadSharedReq_accesses::cpu.data      1455638                       # number of ReadSharedReq accesses(hits+misses)
system.l2.ReadSharedReq_accesses::total       1455638                       # number of ReadSharedReq accesses(hits+misses)
system.l2.demand_accesses::cpu.inst               994                       # number of demand (read+write) accesses
system.l2.demand_accesses::cpu.data           2044623                       # number of demand (read+write) accesses
system.l2.demand_accesses::total              2045617                       # number of demand (read+write) accesses
system.l2.overall_accesses::cpu.inst              994                       # number of overall (read+write) accesses
system.l2.overall_accesses::cpu.data          2044623                       # number of overall (read+write) accesses
system.l2.overall_accesses::total             2045617                       # number of overall (read+write) accesses
system.l2.ReadExReq_miss_rate::cpu.data      0.954761                       # miss rate for ReadExReq accesses
system.l2.ReadExReq_miss_rate::total         0.954761                       # miss rate for ReadExReq accesses
system.l2.ReadCleanReq_miss_rate::cpu.inst            1                       # miss rate for ReadCleanReq accesses
system.l2.ReadCleanReq_miss_rate::total             1                       # miss rate for ReadCleanReq accesses
system.l2.ReadSharedReq_miss_rate::cpu.data     0.954894                       # miss rate for ReadSharedReq accesses
system.l2.ReadSharedReq_miss_rate::total     0.954894                       # miss rate for ReadSharedReq accesses
system.l2.demand_miss_rate::cpu.inst                1                       # miss rate for demand accesses
system.l2.demand_miss_rate::cpu.data         0.954856                       # miss rate for demand accesses
system.l2.demand_miss_rate::total            0.954878                       # miss rate for demand accesses
system.l2.overall_miss_rate::cpu.inst               1                       # miss rate for overall accesses
system.l2.overall_miss_rate::cpu.data        0.954856                       # miss rate for overall accesses
system.l2.overall_miss_rate::total           0.954878                       # miss rate for overall accesses
system.l2.ReadExReq_avg_miss_latency::cpu.data 87949.764377                       # average ReadExReq miss latency
system.l2.ReadExReq_avg_miss_latency::total 87949.764377                       # average ReadExReq miss latency
system.l2.ReadCleanReq_avg_miss_latency::cpu.inst 75087.022133                       # average ReadCleanReq miss latency
system.l2.ReadCleanReq_avg_miss_latency::total 75087.022133                       # average ReadCleanReq miss latency
system.l2.ReadSharedReq_avg_miss_latency::cpu.data 83172.684859                       # average ReadSharedReq miss latency
system.l2.ReadSharedReq_avg_miss_latency::total 83172.684859                       # average ReadSharedReq miss latency
system.l2.demand_avg_miss_latency::cpu.inst 75087.022133                       # average overall miss latency
system.l2.demand_avg_miss_latency::cpu.data 84548.659544                       # average overall miss latency
system.l2.demand_avg_miss_latency::total 84543.844717                       # average overall miss latency
system.l2.overall_avg_miss_latency::cpu.inst 75087.022133                       # average overall miss latency
system.l2.overall_avg_miss_latency::cpu.data 84548.659544                       # average overall miss latency
system.l2.overall_avg_miss_latency::total 84543.844717                       # average overall miss latency
system.l2.blocked_cycles::no_mshrs                  0                       # number of cycles access was blocked
system.l2.blocked_cycles::no_targets                0                       # number of cycles access was blocked
system.l2.blocked::no_mshrs                         0                       # number of cycles access was blocked
system.l2.blocked::no_targets                       0                       # number of cycles access was blocked
system.l2.avg_blocked_cycles::no_mshrs            nan                       # average number of cycles each access was blocked
system.l2.avg_blocked_cycles::no_targets          nan                       # average number of cycles each access was blocked
system.l2.fast_writes                               0                       # number of fast writes performed
system.l2.cache_copies                              0                       # number of cache copies performed
system.l2.writebacks::writebacks               781992                       # number of writebacks
system.l2.writebacks::total                    781992                       # number of writebacks
system.l2.CleanEvict_mshr_misses::writebacks      1168266                       # number of CleanEvict MSHR misses
system.l2.CleanEvict_mshr_misses::total       1168266                       # number of CleanEvict MSHR misses
system.l2.ReadExReq_mshr_misses::cpu.data       562340                       # number of ReadExReq MSHR misses
system.l2.ReadExReq_mshr_misses::total         562340                       # number of ReadExReq MSHR misses
system.l2.ReadCleanReq_mshr_misses::cpu.inst          994                       # number of ReadCleanReq MSHR misses
system.l2.ReadCleanReq_mshr_misses::total          994                       # number of ReadCleanReq MSHR misses
system.l2.ReadSharedReq_mshr_misses::cpu.data      1389980                       # number of ReadSharedReq MSHR misses
system.l2.ReadSharedReq_mshr_misses::total      1389980                       # number of ReadSharedReq MSHR misses
system.l2.demand_mshr_misses::cpu.inst            994                       # number of demand (read+write) MSHR misses
system.l2.demand_mshr_misses::cpu.data        1952320                       # number of demand (read+write) MSHR misses
system.l2.demand_mshr_misses::total           1953314                       # number of demand (read+write) MSHR misses
system.l2.overall_mshr_misses::cpu.inst           994                       # number of overall MSHR misses
system.l2.overall_mshr_misses::cpu.data       1952320                       # number of overall MSHR misses
system.l2.overall_mshr_misses::total          1953314                       # number of overall MSHR misses
system.l2.ReadExReq_mshr_miss_latency::cpu.data  43834270500                       # number of ReadExReq MSHR miss cycles
system.l2.ReadExReq_mshr_miss_latency::total  43834270500                       # number of ReadExReq MSHR miss cycles
system.l2.ReadCleanReq_mshr_miss_latency::cpu.inst     64696500                       # number of ReadCleanReq MSHR miss cycles
system.l2.ReadCleanReq_mshr_miss_latency::total     64696500                       # number of ReadCleanReq MSHR miss cycles
system.l2.ReadSharedReq_mshr_miss_latency::cpu.data 101708568500                       # number of ReadSharedReq MSHR miss cycles
system.l2.ReadSharedReq_mshr_miss_latency::total 101708568500                       # number of ReadSharedReq MSHR miss cycles
system.l2.demand_mshr_miss_latency::cpu.inst     64696500                       # number of demand (read+write) MSHR miss cycles
system.l2.demand_mshr_miss_latency::cpu.data 145542839000                       # number of demand (read+write) MSHR miss cycles
system.l2.demand_mshr_miss_latency::total 145607535500                       # number of demand (read+write) MSHR miss cycles
system.l2.overall_mshr_miss_latency::cpu.inst     64696500                       # number of overall MSHR miss cycles
system.l2.overall_mshr_miss_latency::cpu.data 145542839000                       # number of overall MSHR miss cycles
system.l2.overall_mshr_miss_latency::total 145607535500                       # number of overall MSHR miss cycles
system.l2.CleanEvict_mshr_miss_rate::writebacks          inf                       # mshr miss rate for CleanEvict accesses
system.l2.CleanEvict_mshr_miss_rate::total          inf                       # mshr miss rate for CleanEvict accesses
system.l2.ReadExReq_mshr_miss_rate::cpu.data     0.954761                       # mshr miss rate for ReadExReq accesses
system.l2.ReadExReq_mshr_miss_rate::total     0.954761                       # mshr miss rate for ReadExReq accesses
system.l2.ReadCleanReq_mshr_miss_rate::cpu.inst            1                       # mshr miss rate for ReadCleanReq accesses
system.l2.ReadCleanReq_mshr_miss_rate::total            1                       # mshr miss rate for ReadCleanReq accesses
system.l2.ReadSharedReq_mshr_miss_rate::cpu.data     0.954894                       # mshr miss rate for ReadSharedReq accesses
system.l2.ReadSharedReq_mshr_miss_rate::total     0.954894                       # mshr miss rate for ReadSharedReq accesses
system.l2.demand_mshr_miss_rate::cpu.inst            1                       # mshr miss rate for demand accesses
system.l2.demand_mshr_miss_rate::cpu.data     0.954856                       # mshr miss rate for demand accesses
system.l2.demand_mshr_miss_rate::total       0.954878                       # mshr miss rate for demand accesses
system.l2.overall_mshr_miss_rate::cpu.inst            1                       # mshr miss rate for overall accesses
system.l2.overall_mshr_miss_rate::cpu.data     0.954856                       # mshr miss rate for overall accesses
system.l2.overall_mshr_miss_rate::total      0.954878                       # mshr miss rate for overall accesses
system.l2.ReadExReq_avg_mshr_miss_latency::cpu.data 77949.764377                       # average ReadExReq mshr miss latency
system.l2.ReadExReq_avg_mshr_miss_latency::total 77949.764377                       # average ReadExReq mshr miss latency
system.l2.ReadCleanReq_avg_mshr_miss_latency::cpu.inst 65087.022133                       # average ReadCleanReq mshr miss latency
system.l2.ReadCleanReq_avg_mshr_miss_latency::total 65087.022133                       # average ReadCleanReq mshr miss latency
system.l2.ReadSharedReq_avg_mshr_miss_latency::cpu.data 73172.684859                       # average ReadSharedReq mshr miss latency
system.l2.ReadSharedReq_avg_mshr_miss_latency::total 73172.684859                       # average ReadSharedReq mshr miss latency
system.l2.demand_avg_mshr_miss_latency::cpu.inst 65087.022133                       # average overall mshr miss latency
system.l2.demand_avg_mshr_miss_latency::cpu.data 74548.659544                       # average overall mshr miss latency
system.l2.demand_avg_mshr_miss_latency::total 74543.844717                       # average overall mshr miss latency
system.l2.overall_avg_mshr_miss_latency::cpu.inst 65087.022133                       # average overall mshr miss latency
system.l2.overall_avg_mshr_miss_latency::cpu.data 74548.659544                       # average overall mshr miss latency
system.l2.overall_avg_mshr_miss_latency::total 74543.844717                       # average overall mshr miss latency
system.l2.no_allocate_misses                        0                       # Number of misses that were no-allocate
system.membus.trans_dist::ReadResp            1390974                       # Transaction distribution
system.membus.trans_dist::WritebackDirty       781992                       # Transaction distribution
system.membus.trans_dist::CleanEvict          1168311                       # Transaction distribution
system.membus.trans_dist::ReadExReq            562340                       # Transaction distribution
system.membus.trans_dist::ReadExResp           562340                       # Transaction distribution
system.membus.trans_dist::ReadSharedReq       1390974                       # Transaction distribution
system.membus.pkt_count_system.l2.mem_side::system.mem_ctrls.port      5856931                       # Packet count per connected master and slave (bytes)
system.membus.pkt_count_system.l2.mem_side::total      5856931                       # Packet count per connected master and slave (bytes)
system.membus.pkt_count::total                5856931                       # Packet count per connected master and slave (bytes)
system.membus.pkt_size_system.l2.mem_side::system.mem_ctrls.port    175059584                       # Cumulative packet size per connected master and slave (bytes)
system.membus.pkt_size_system.l2.mem_side::total    175059584                       # Cumulative packet size per connected master and slave (bytes)
system.membus.pkt_size::total               175059584                       # Cumulative packet size per connected master and slave (bytes)
system.membus.snoops                                0                       # Total snoops (count)
system.membus.snoop_fanout::samples           3903617                       # Request fanout histogram
system.membus.snoop_fanout::mean                    0                       # Request fanout histogram
system.membus.snoop_fanout::stdev                   0                       # Request fanout histogram
system.membus.snoop_fanout::underflows              0      0.00%      0.00% # Request fanout histogram
system.membus.snoop_fanout::0                 3903617    100.00%    100.00% # Request fanout histogram
system.membus.snoop_fanout::1                       0      0.00%    100.00% # Request fanout histogram
system.membus.snoop_fanout::overflows               0      0.00%    100.00% # Request fanout histogram
system.membus.snoop_fanout::min_value               0                       # Request fanout histogram
system.membus.snoop_fanout::max_value               0                       # Request fanout histogram
system.membus.snoop_fanout::total             3903617                       # Request fanout histogram
system.membus.reqLayer2.occupancy          7037685500                       # Layer occupancy (ticks)
system.membus.reqLayer2.utilization               0.6                       # Layer utilization (%)
system.membus.respLayer1.occupancy        10631447750                       # Layer occupancy (ticks)
system.membus.respLayer1.utilization              0.9                       # Layer utilization (%)
system.tol2bus.snoop_filter.tot_requests      4088237                       # Total number of requests made to the snoop filter.
system.tol2bus.snoop_filter.hit_single_requests      2042620                       # Number of requests hitting in the snoop filter with a single holder of the requested data.
system.tol2bus.snoop_filter.hit_multi_requests            1                       # Number of requests hitting in the snoop filter with multiple (>1) holders of the requested data.
system.tol2bus.snoop_filter.tot_snoops        1456299                       # Total number of snoops made to the snoop filter.
system.tol2bus.snoop_filter.hit_single_snoops      1456298                       # Number of snoops hitting in the snoop filter with a single holder of the requested data.
system.tol2bus.snoop_filter.hit_multi_snoops            1                       # Number of snoops hitting in the snoop filter with multiple (>1) holders of the requested data.
system.tol2bus.trans_dist::ReadResp           1456632                       # Transaction distribution
system.tol2bus.trans_dist::WritebackDirty      1656300                       # Transaction distribution
system.tol2bus.trans_dist::WritebackClean           45                       # Transaction distribution
system.tol2bus.trans_dist::CleanEvict         2624610                       # Transaction distribution
system.tol2bus.trans_dist::ReadExReq           588985                       # Transaction distribution
system.tol2bus.trans_dist::ReadExResp          588985                       # Transaction distribution
system.tol2bus.trans_dist::ReadCleanReq           994                       # Transaction distribution
system.tol2bus.trans_dist::ReadSharedReq      1455638                       # Transaction distribution
system.tol2bus.pkt_count_system.cpu.icache.mem_side::system.l2.cpu_side         2033                       # Packet count per connected master and slave (bytes)
system.tol2bus.pkt_count_system.cpu.dcache.mem_side::system.l2.cpu_side      6131820                       # Packet count per connected master and slave (bytes)
system.tol2bus.pkt_count::total               6133853                       # Packet count per connected master and slave (bytes)
system.tol2bus.pkt_size_system.cpu.icache.mem_side::system.l2.cpu_side        66496                       # Cumulative packet size per connected master and slave (bytes)
system.tol2bus.pkt_size_system.cpu.dcache.mem_side::system.l2.cpu_side    186811584                       # Cumulative packet size per connected master and slave (bytes)
system.tol2bus.pkt_size::total              186878080                       # Cumulative packet size per connected master and slave (bytes)
system.tol2bus.snoops                         2238336                       # Total snoops (count)
system.tol2bus.snoop_fanout::samples          4283953                       # Request fanout histogram
system.tol2bus.snoop_fanout::mean            0.339943                       # Request fanout histogram
system.tol2bus.snoop_fanout::stdev           0.473690                       # Request fanout histogram
system.tol2bus.snoop_fanout::underflows             0      0.00%      0.00% # Request fanout histogram
system.tol2bus.snoop_fanout::0                2827653     66.01%     66.01% # Request fanout histogram
system.tol2bus.snoop_fanout::1                1456299     33.99%    100.00% # Request fanout histogram
system.tol2bus.snoop_fanout::2                      1      0.00%    100.00% # Request fanout histogram
system.tol2bus.snoop_fanout::3                      0      0.00%    100.00% # Request fanout histogram
system.tol2bus.snoop_fanout::4                      0      0.00%    100.00% # Request fanout histogram
system.tol2bus.snoop_fanout::overflows              0      0.00%    100.00% # Request fanout histogram
system.tol2bus.snoop_fanout::min_value              0                       # Request fanout histogram
system.tol2bus.snoop_fanout::max_value              2                       # Request fanout histogram
system.tol2bus.snoop_fanout::total            4283953                       # Request fanout histogram
system.tol2bus.reqLayer0.occupancy         2918471500                       # Layer occupancy (ticks)
system.tol2bus.reqLayer0.utilization              0.3                       # Layer utilization (%)
system.tol2bus.respLayer0.occupancy           1491000                       # Layer occupancy (ticks)
system.tol2bus.respLayer0.utilization             0.0                       # Layer utilization (%)
system.tol2bus.respLayer1.occupancy        3066934500                       # Layer occupancy (ticks)
system.tol2bus.respLayer1.utilization             0.3                       # Layer utilization (%)

---------- End Simulation Statistics   ----------
