
---------- Begin Simulation Statistics ----------
sim_seconds                                  1.051527                       # Number of seconds simulated
sim_ticks                                1051527045500                       # Number of ticks simulated
final_tick                               1051527045500                       # Number of ticks from beginning of simulation (restored from checkpoints and never reset)
sim_freq                                 1000000000000                       # Frequency of simulated ticks
host_inst_rate                                  34628                       # Simulator instruction rate (inst/s)
host_op_rate                                    50588                       # Simulator op (including micro ops) rate (op/s)
host_tick_rate                               72824499                       # Simulator tick rate (ticks/s)
host_mem_usage                                 828416                       # Number of bytes of host memory used
host_seconds                                 14439.19                       # Real time elapsed on the host
sim_insts                                   500000000                       # Number of instructions simulated
sim_ops                                     730450481                       # Number of ops (including micro ops) simulated
system.voltage_domain.voltage                       1                       # Voltage in Volts
system.clk_domain.clock                          1000                       # Clock period in ticks
system.mem_ctrls.bytes_read::cpu.inst           64000                       # Number of bytes read from this memory
system.mem_ctrls.bytes_read::cpu.data        39318272                       # Number of bytes read from this memory
system.mem_ctrls.bytes_read::total           39382272                       # Number of bytes read from this memory
system.mem_ctrls.bytes_inst_read::cpu.inst        64000                       # Number of instructions bytes read from this memory
system.mem_ctrls.bytes_inst_read::total         64000                       # Number of instructions bytes read from this memory
system.mem_ctrls.bytes_written::writebacks     23619520                       # Number of bytes written to this memory
system.mem_ctrls.bytes_written::total        23619520                       # Number of bytes written to this memory
system.mem_ctrls.num_reads::cpu.inst             1000                       # Number of read requests responded to by this memory
system.mem_ctrls.num_reads::cpu.data           614348                       # Number of read requests responded to by this memory
system.mem_ctrls.num_reads::total              615348                       # Number of read requests responded to by this memory
system.mem_ctrls.num_writes::writebacks        369055                       # Number of write requests responded to by this memory
system.mem_ctrls.num_writes::total             369055                       # Number of write requests responded to by this memory
system.mem_ctrls.bw_read::cpu.inst              60864                       # Total read bandwidth from this memory (bytes/s)
system.mem_ctrls.bw_read::cpu.data           37391594                       # Total read bandwidth from this memory (bytes/s)
system.mem_ctrls.bw_read::total              37452458                       # Total read bandwidth from this memory (bytes/s)
system.mem_ctrls.bw_inst_read::cpu.inst         60864                       # Instruction read bandwidth from this memory (bytes/s)
system.mem_ctrls.bw_inst_read::total            60864                       # Instruction read bandwidth from this memory (bytes/s)
system.mem_ctrls.bw_write::writebacks        22462114                       # Write bandwidth from this memory (bytes/s)
system.mem_ctrls.bw_write::total             22462114                       # Write bandwidth from this memory (bytes/s)
system.mem_ctrls.bw_total::writebacks        22462114                       # Total bandwidth to/from this memory (bytes/s)
system.mem_ctrls.bw_total::cpu.inst             60864                       # Total bandwidth to/from this memory (bytes/s)
system.mem_ctrls.bw_total::cpu.data          37391594                       # Total bandwidth to/from this memory (bytes/s)
system.mem_ctrls.bw_total::total             59914571                       # Total bandwidth to/from this memory (bytes/s)
system.mem_ctrls.readReqs                      615348                       # Number of read requests accepted
system.mem_ctrls.writeReqs                     369055                       # Number of write requests accepted
system.mem_ctrls.readBursts                    615348                       # Number of DRAM read bursts, including those serviced by the write queue
system.mem_ctrls.writeBursts                   369055                       # Number of DRAM write bursts, including those merged in the write queue
system.mem_ctrls.bytesReadDRAM               39318528                       # Total number of bytes read from DRAM
system.mem_ctrls.bytesReadWrQ                   63744                       # Total number of bytes read from write queue
system.mem_ctrls.bytesWritten                23617600                       # Total number of bytes written to DRAM
system.mem_ctrls.bytesReadSys                39382272                       # Total read bytes from the system interface side
system.mem_ctrls.bytesWrittenSys             23619520                       # Total written bytes from the system interface side
system.mem_ctrls.servicedByWrQ                    996                       # Number of DRAM read bursts serviced by the write queue
system.mem_ctrls.mergedWrBursts                     0                       # Number of DRAM write bursts merged with an existing one
system.mem_ctrls.neitherReadNorWriteReqs       228854                       # Number of requests that are neither read nor write
system.mem_ctrls.perBankRdBursts::0             39497                       # Per bank write bursts
system.mem_ctrls.perBankRdBursts::1             38504                       # Per bank write bursts
system.mem_ctrls.perBankRdBursts::2             37688                       # Per bank write bursts
system.mem_ctrls.perBankRdBursts::3             37668                       # Per bank write bursts
system.mem_ctrls.perBankRdBursts::4             37459                       # Per bank write bursts
system.mem_ctrls.perBankRdBursts::5             37794                       # Per bank write bursts
system.mem_ctrls.perBankRdBursts::6             38307                       # Per bank write bursts
system.mem_ctrls.perBankRdBursts::7             38309                       # Per bank write bursts
system.mem_ctrls.perBankRdBursts::8             37680                       # Per bank write bursts
system.mem_ctrls.perBankRdBursts::9             37252                       # Per bank write bursts
system.mem_ctrls.perBankRdBursts::10            38489                       # Per bank write bursts
system.mem_ctrls.perBankRdBursts::11            39106                       # Per bank write bursts
system.mem_ctrls.perBankRdBursts::12            39117                       # Per bank write bursts
system.mem_ctrls.perBankRdBursts::13            38887                       # Per bank write bursts
system.mem_ctrls.perBankRdBursts::14            39359                       # Per bank write bursts
system.mem_ctrls.perBankRdBursts::15            39236                       # Per bank write bursts
system.mem_ctrls.perBankWrBursts::0             23828                       # Per bank write bursts
system.mem_ctrls.perBankWrBursts::1             22978                       # Per bank write bursts
system.mem_ctrls.perBankWrBursts::2             22416                       # Per bank write bursts
system.mem_ctrls.perBankWrBursts::3             22351                       # Per bank write bursts
system.mem_ctrls.perBankWrBursts::4             22137                       # Per bank write bursts
system.mem_ctrls.perBankWrBursts::5             21994                       # Per bank write bursts
system.mem_ctrls.perBankWrBursts::6             22241                       # Per bank write bursts
system.mem_ctrls.perBankWrBursts::7             22916                       # Per bank write bursts
system.mem_ctrls.perBankWrBursts::8             23497                       # Per bank write bursts
system.mem_ctrls.perBankWrBursts::9             23327                       # Per bank write bursts
system.mem_ctrls.perBankWrBursts::10            23459                       # Per bank write bursts
system.mem_ctrls.perBankWrBursts::11            23285                       # Per bank write bursts
system.mem_ctrls.perBankWrBursts::12            23289                       # Per bank write bursts
system.mem_ctrls.perBankWrBursts::13            23607                       # Per bank write bursts
system.mem_ctrls.perBankWrBursts::14            24020                       # Per bank write bursts
system.mem_ctrls.perBankWrBursts::15            23680                       # Per bank write bursts
system.mem_ctrls.numRdRetry                         0                       # Number of times read queue was full causing retry
system.mem_ctrls.numWrRetry                         0                       # Number of times write queue was full causing retry
system.mem_ctrls.totGap                  1051494253500                       # Total gap between requests
system.mem_ctrls.readPktSize::0                     0                       # Read request sizes (log2)
system.mem_ctrls.readPktSize::1                     0                       # Read request sizes (log2)
system.mem_ctrls.readPktSize::2                     0                       # Read request sizes (log2)
system.mem_ctrls.readPktSize::3                     0                       # Read request sizes (log2)
system.mem_ctrls.readPktSize::4                     0                       # Read request sizes (log2)
system.mem_ctrls.readPktSize::5                     0                       # Read request sizes (log2)
system.mem_ctrls.readPktSize::6                615348                       # Read request sizes (log2)
system.mem_ctrls.writePktSize::0                    0                       # Write request sizes (log2)
system.mem_ctrls.writePktSize::1                    0                       # Write request sizes (log2)
system.mem_ctrls.writePktSize::2                    0                       # Write request sizes (log2)
system.mem_ctrls.writePktSize::3                    0                       # Write request sizes (log2)
system.mem_ctrls.writePktSize::4                    0                       # Write request sizes (log2)
system.mem_ctrls.writePktSize::5                    0                       # Write request sizes (log2)
system.mem_ctrls.writePktSize::6               369055                       # Write request sizes (log2)
system.mem_ctrls.rdQLenPdf::0                  605624                       # What read queue length does an incoming req see
system.mem_ctrls.rdQLenPdf::1                    8041                       # What read queue length does an incoming req see
system.mem_ctrls.rdQLenPdf::2                     549                       # What read queue length does an incoming req see
system.mem_ctrls.rdQLenPdf::3                     138                       # What read queue length does an incoming req see
system.mem_ctrls.rdQLenPdf::4                       0                       # What read queue length does an incoming req see
system.mem_ctrls.rdQLenPdf::5                       0                       # What read queue length does an incoming req see
system.mem_ctrls.rdQLenPdf::6                       0                       # What read queue length does an incoming req see
system.mem_ctrls.rdQLenPdf::7                       0                       # What read queue length does an incoming req see
system.mem_ctrls.rdQLenPdf::8                       0                       # What read queue length does an incoming req see
system.mem_ctrls.rdQLenPdf::9                       0                       # What read queue length does an incoming req see
system.mem_ctrls.rdQLenPdf::10                      0                       # What read queue length does an incoming req see
system.mem_ctrls.rdQLenPdf::11                      0                       # What read queue length does an incoming req see
system.mem_ctrls.rdQLenPdf::12                      0                       # What read queue length does an incoming req see
system.mem_ctrls.rdQLenPdf::13                      0                       # What read queue length does an incoming req see
system.mem_ctrls.rdQLenPdf::14                      0                       # What read queue length does an incoming req see
system.mem_ctrls.rdQLenPdf::15                      0                       # What read queue length does an incoming req see
system.mem_ctrls.rdQLenPdf::16                      0                       # What read queue length does an incoming req see
system.mem_ctrls.rdQLenPdf::17                      0                       # What read queue length does an incoming req see
system.mem_ctrls.rdQLenPdf::18                      0                       # What read queue length does an incoming req see
system.mem_ctrls.rdQLenPdf::19                      0                       # What read queue length does an incoming req see
system.mem_ctrls.rdQLenPdf::20                      0                       # What read queue length does an incoming req see
system.mem_ctrls.rdQLenPdf::21                      0                       # What read queue length does an incoming req see
system.mem_ctrls.rdQLenPdf::22                      0                       # What read queue length does an incoming req see
system.mem_ctrls.rdQLenPdf::23                      0                       # What read queue length does an incoming req see
system.mem_ctrls.rdQLenPdf::24                      0                       # What read queue length does an incoming req see
system.mem_ctrls.rdQLenPdf::25                      0                       # What read queue length does an incoming req see
system.mem_ctrls.rdQLenPdf::26                      0                       # What read queue length does an incoming req see
system.mem_ctrls.rdQLenPdf::27                      0                       # What read queue length does an incoming req see
system.mem_ctrls.rdQLenPdf::28                      0                       # What read queue length does an incoming req see
system.mem_ctrls.rdQLenPdf::29                      0                       # What read queue length does an incoming req see
system.mem_ctrls.rdQLenPdf::30                      0                       # What read queue length does an incoming req see
system.mem_ctrls.rdQLenPdf::31                      0                       # What read queue length does an incoming req see
system.mem_ctrls.wrQLenPdf::0                       1                       # What write queue length does an incoming req see
system.mem_ctrls.wrQLenPdf::1                       1                       # What write queue length does an incoming req see
system.mem_ctrls.wrQLenPdf::2                       1                       # What write queue length does an incoming req see
system.mem_ctrls.wrQLenPdf::3                       1                       # What write queue length does an incoming req see
system.mem_ctrls.wrQLenPdf::4                       1                       # What write queue length does an incoming req see
system.mem_ctrls.wrQLenPdf::5                       1                       # What write queue length does an incoming req see
system.mem_ctrls.wrQLenPdf::6                       1                       # What write queue length does an incoming req see
system.mem_ctrls.wrQLenPdf::7                       1                       # What write queue length does an incoming req see
system.mem_ctrls.wrQLenPdf::8                       1                       # What write queue length does an incoming req see
system.mem_ctrls.wrQLenPdf::9                       1                       # What write queue length does an incoming req see
system.mem_ctrls.wrQLenPdf::10                      1                       # What write queue length does an incoming req see
system.mem_ctrls.wrQLenPdf::11                      1                       # What write queue length does an incoming req see
system.mem_ctrls.wrQLenPdf::12                      1                       # What write queue length does an incoming req see
system.mem_ctrls.wrQLenPdf::13                      1                       # What write queue length does an incoming req see
system.mem_ctrls.wrQLenPdf::14                      1                       # What write queue length does an incoming req see
system.mem_ctrls.wrQLenPdf::15                  14037                       # What write queue length does an incoming req see
system.mem_ctrls.wrQLenPdf::16                  14693                       # What write queue length does an incoming req see
system.mem_ctrls.wrQLenPdf::17                  20977                       # What write queue length does an incoming req see
system.mem_ctrls.wrQLenPdf::18                  21320                       # What write queue length does an incoming req see
system.mem_ctrls.wrQLenPdf::19                  21326                       # What write queue length does an incoming req see
system.mem_ctrls.wrQLenPdf::20                  21213                       # What write queue length does an incoming req see
system.mem_ctrls.wrQLenPdf::21                  21146                       # What write queue length does an incoming req see
system.mem_ctrls.wrQLenPdf::22                  21147                       # What write queue length does an incoming req see
system.mem_ctrls.wrQLenPdf::23                  21170                       # What write queue length does an incoming req see
system.mem_ctrls.wrQLenPdf::24                  21190                       # What write queue length does an incoming req see
system.mem_ctrls.wrQLenPdf::25                  21263                       # What write queue length does an incoming req see
system.mem_ctrls.wrQLenPdf::26                  21309                       # What write queue length does an incoming req see
system.mem_ctrls.wrQLenPdf::27                  21646                       # What write queue length does an incoming req see
system.mem_ctrls.wrQLenPdf::28                  22029                       # What write queue length does an incoming req see
system.mem_ctrls.wrQLenPdf::29                  21134                       # What write queue length does an incoming req see
system.mem_ctrls.wrQLenPdf::30                  21122                       # What write queue length does an incoming req see
system.mem_ctrls.wrQLenPdf::31                  21126                       # What write queue length does an incoming req see
system.mem_ctrls.wrQLenPdf::32                  21121                       # What write queue length does an incoming req see
system.mem_ctrls.wrQLenPdf::33                     59                       # What write queue length does an incoming req see
system.mem_ctrls.wrQLenPdf::34                     11                       # What write queue length does an incoming req see
system.mem_ctrls.wrQLenPdf::35                      1                       # What write queue length does an incoming req see
system.mem_ctrls.wrQLenPdf::36                      0                       # What write queue length does an incoming req see
system.mem_ctrls.wrQLenPdf::37                      0                       # What write queue length does an incoming req see
system.mem_ctrls.wrQLenPdf::38                      0                       # What write queue length does an incoming req see
system.mem_ctrls.wrQLenPdf::39                      0                       # What write queue length does an incoming req see
system.mem_ctrls.wrQLenPdf::40                      0                       # What write queue length does an incoming req see
system.mem_ctrls.wrQLenPdf::41                      0                       # What write queue length does an incoming req see
system.mem_ctrls.wrQLenPdf::42                      0                       # What write queue length does an incoming req see
system.mem_ctrls.wrQLenPdf::43                      0                       # What write queue length does an incoming req see
system.mem_ctrls.wrQLenPdf::44                      0                       # What write queue length does an incoming req see
system.mem_ctrls.wrQLenPdf::45                      0                       # What write queue length does an incoming req see
system.mem_ctrls.wrQLenPdf::46                      0                       # What write queue length does an incoming req see
system.mem_ctrls.wrQLenPdf::47                      0                       # What write queue length does an incoming req see
system.mem_ctrls.wrQLenPdf::48                      0                       # What write queue length does an incoming req see
system.mem_ctrls.wrQLenPdf::49                      0                       # What write queue length does an incoming req see
system.mem_ctrls.wrQLenPdf::50                      0                       # What write queue length does an incoming req see
system.mem_ctrls.wrQLenPdf::51                      0                       # What write queue length does an incoming req see
system.mem_ctrls.wrQLenPdf::52                      0                       # What write queue length does an incoming req see
system.mem_ctrls.wrQLenPdf::53                      0                       # What write queue length does an incoming req see
system.mem_ctrls.wrQLenPdf::54                      0                       # What write queue length does an incoming req see
system.mem_ctrls.wrQLenPdf::55                      0                       # What write queue length does an incoming req see
system.mem_ctrls.wrQLenPdf::56                      0                       # What write queue length does an incoming req see
system.mem_ctrls.wrQLenPdf::57                      0                       # What write queue length does an incoming req see
system.mem_ctrls.wrQLenPdf::58                      0                       # What write queue length does an incoming req see
system.mem_ctrls.wrQLenPdf::59                      0                       # What write queue length does an incoming req see
system.mem_ctrls.wrQLenPdf::60                      0                       # What write queue length does an incoming req see
system.mem_ctrls.wrQLenPdf::61                      0                       # What write queue length does an incoming req see
system.mem_ctrls.wrQLenPdf::62                      0                       # What write queue length does an incoming req see
system.mem_ctrls.wrQLenPdf::63                      0                       # What write queue length does an incoming req see
system.mem_ctrls.bytesPerActivate::samples       540822                       # Bytes accessed per row activation
system.mem_ctrls.bytesPerActivate::mean    116.371242                       # Bytes accessed per row activation
system.mem_ctrls.bytesPerActivate::gmean    87.228291                       # Bytes accessed per row activation
system.mem_ctrls.bytesPerActivate::stdev   147.141459                       # Bytes accessed per row activation
system.mem_ctrls.bytesPerActivate::0-127       396218     73.26%     73.26% # Bytes accessed per row activation
system.mem_ctrls.bytesPerActivate::128-255        98096     18.14%     91.40% # Bytes accessed per row activation
system.mem_ctrls.bytesPerActivate::256-383        18285      3.38%     94.78% # Bytes accessed per row activation
system.mem_ctrls.bytesPerActivate::384-511         6381      1.18%     95.96% # Bytes accessed per row activation
system.mem_ctrls.bytesPerActivate::512-639        11656      2.16%     98.12% # Bytes accessed per row activation
system.mem_ctrls.bytesPerActivate::640-767         1011      0.19%     98.30% # Bytes accessed per row activation
system.mem_ctrls.bytesPerActivate::768-895          583      0.11%     98.41% # Bytes accessed per row activation
system.mem_ctrls.bytesPerActivate::896-1023          569      0.11%     98.52% # Bytes accessed per row activation
system.mem_ctrls.bytesPerActivate::1024-1151         8023      1.48%    100.00% # Bytes accessed per row activation
system.mem_ctrls.bytesPerActivate::total       540822                       # Bytes accessed per row activation
system.mem_ctrls.rdPerTurnAround::samples        21121                       # Reads before turning the bus around for writes
system.mem_ctrls.rdPerTurnAround::mean      29.064202                       # Reads before turning the bus around for writes
system.mem_ctrls.rdPerTurnAround::stdev    205.123590                       # Reads before turning the bus around for writes
system.mem_ctrls.rdPerTurnAround::0-1023        21082     99.82%     99.82% # Reads before turning the bus around for writes
system.mem_ctrls.rdPerTurnAround::1024-2047           36      0.17%     99.99% # Reads before turning the bus around for writes
system.mem_ctrls.rdPerTurnAround::2048-3071            1      0.00%     99.99% # Reads before turning the bus around for writes
system.mem_ctrls.rdPerTurnAround::3072-4095            1      0.00%    100.00% # Reads before turning the bus around for writes
system.mem_ctrls.rdPerTurnAround::27648-28671            1      0.00%    100.00% # Reads before turning the bus around for writes
system.mem_ctrls.rdPerTurnAround::total         21121                       # Reads before turning the bus around for writes
system.mem_ctrls.wrPerTurnAround::samples        21121                       # Writes before turning the bus around for reads
system.mem_ctrls.wrPerTurnAround::mean      17.471947                       # Writes before turning the bus around for reads
system.mem_ctrls.wrPerTurnAround::gmean     17.439556                       # Writes before turning the bus around for reads
system.mem_ctrls.wrPerTurnAround::stdev      1.055371                       # Writes before turning the bus around for reads
system.mem_ctrls.wrPerTurnAround::16             6515     30.85%     30.85% # Writes before turning the bus around for reads
system.mem_ctrls.wrPerTurnAround::17              514      2.43%     33.28% # Writes before turning the bus around for reads
system.mem_ctrls.wrPerTurnAround::18            11900     56.34%     89.62% # Writes before turning the bus around for reads
system.mem_ctrls.wrPerTurnAround::19             2014      9.54%     99.16% # Writes before turning the bus around for reads
system.mem_ctrls.wrPerTurnAround::20              160      0.76%     99.91% # Writes before turning the bus around for reads
system.mem_ctrls.wrPerTurnAround::21               16      0.08%     99.99% # Writes before turning the bus around for reads
system.mem_ctrls.wrPerTurnAround::22                1      0.00%    100.00% # Writes before turning the bus around for reads
system.mem_ctrls.wrPerTurnAround::23                1      0.00%    100.00% # Writes before turning the bus around for reads
system.mem_ctrls.wrPerTurnAround::total         21121                       # Writes before turning the bus around for reads
system.mem_ctrls.totQLat                   9006923250                       # Total ticks spent queuing
system.mem_ctrls.totMemAccLat             20526023250                       # Total ticks spent from burst creation until serviced by the DRAM
system.mem_ctrls.totBusLat                 3071760000                       # Total ticks spent in databus transfers
system.mem_ctrls.avgQLat                     14660.85                       # Average queueing delay per DRAM burst
system.mem_ctrls.avgBusLat                    5000.00                       # Average bus latency per DRAM burst
system.mem_ctrls.avgMemAccLat                33410.85                       # Average memory access latency per DRAM burst
system.mem_ctrls.avgRdBW                        37.39                       # Average DRAM read bandwidth in MiByte/s
system.mem_ctrls.avgWrBW                        22.46                       # Average achieved write bandwidth in MiByte/s
system.mem_ctrls.avgRdBWSys                     37.45                       # Average system read bandwidth in MiByte/s
system.mem_ctrls.avgWrBWSys                     22.46                       # Average system write bandwidth in MiByte/s
system.mem_ctrls.peakBW                      12800.00                       # Theoretical peak bandwidth in MiByte/s
system.mem_ctrls.busUtil                         0.47                       # Data bus utilization in percentage
system.mem_ctrls.busUtilRead                     0.29                       # Data bus utilization in percentage for reads
system.mem_ctrls.busUtilWrite                    0.18                       # Data bus utilization in percentage for writes
system.mem_ctrls.avgRdQLen                       1.00                       # Average read queue length when enqueuing
system.mem_ctrls.avgWrQLen                      24.78                       # Average write queue length when enqueuing
system.mem_ctrls.readRowHits                   297235                       # Number of row buffer hits during reads
system.mem_ctrls.writeRowHits                  145320                       # Number of row buffer hits during writes
system.mem_ctrls.readRowHitRate                 48.38                       # Row buffer hit rate for reads
system.mem_ctrls.writeRowHitRate                39.38                       # Row buffer hit rate for writes
system.mem_ctrls.avgGap                    1068154.26                       # Average gap between requests
system.mem_ctrls.pageHitRate                    45.00                       # Row buffer hit rate, read and write combined
system.mem_ctrls_0.actEnergy               2019555720                       # Energy for activate commands per rank (pJ)
system.mem_ctrls_0.preEnergy               1101940125                       # Energy for precharge commands per rank (pJ)
system.mem_ctrls_0.readEnergy              2380762800                       # Energy for read commands per rank (pJ)
system.mem_ctrls_0.writeEnergy             1171979280                       # Energy for write commands per rank (pJ)
system.mem_ctrls_0.refreshEnergy          68680519440                       # Energy for refresh commands per rank (pJ)
system.mem_ctrls_0.actBackEnergy         204969632220                       # Energy for active background per rank (pJ)
system.mem_ctrls_0.preBackEnergy         451117390500                       # Energy for precharge background per rank (pJ)
system.mem_ctrls_0.totalEnergy           731441780085                       # Total energy per rank (pJ)
system.mem_ctrls_0.averagePower            695.600596                       # Core power per rank (mW)
system.mem_ctrls_0.memoryStateTime::IDLE 749273484250                       # Time in different power states
system.mem_ctrls_0.memoryStateTime::REF   35112740000                       # Time in different power states
system.mem_ctrls_0.memoryStateTime::PRE_PDN            0                       # Time in different power states
system.mem_ctrls_0.memoryStateTime::ACT  267139312000                       # Time in different power states
system.mem_ctrls_0.memoryStateTime::ACT_PDN            0                       # Time in different power states
system.mem_ctrls_1.actEnergy               2069058600                       # Energy for activate commands per rank (pJ)
system.mem_ctrls_1.preEnergy               1128950625                       # Energy for precharge commands per rank (pJ)
system.mem_ctrls_1.readEnergy              2411182800                       # Energy for read commands per rank (pJ)
system.mem_ctrls_1.writeEnergy             1219302720                       # Energy for write commands per rank (pJ)
system.mem_ctrls_1.refreshEnergy          68680519440                       # Energy for refresh commands per rank (pJ)
system.mem_ctrls_1.actBackEnergy         205191430335                       # Energy for active background per rank (pJ)
system.mem_ctrls_1.preBackEnergy         450922830750                       # Energy for precharge background per rank (pJ)
system.mem_ctrls_1.totalEnergy           731623275270                       # Total energy per rank (pJ)
system.mem_ctrls_1.averagePower            695.773198                       # Core power per rank (mW)
system.mem_ctrls_1.memoryStateTime::IDLE 748940485750                       # Time in different power states
system.mem_ctrls_1.memoryStateTime::REF   35112740000                       # Time in different power states
system.mem_ctrls_1.memoryStateTime::PRE_PDN            0                       # Time in different power states
system.mem_ctrls_1.memoryStateTime::ACT  267472310500                       # Time in different power states
system.mem_ctrls_1.memoryStateTime::ACT_PDN            0                       # Time in different power states
system.cpu_voltage_domain.voltage                   1                       # Voltage in Volts
system.cpu_clk_domain.clock                       500                       # Clock period in ticks
system.cpu.apic_clk_domain.clock                 8000                       # Clock period in ticks
system.cpu.workload.num_syscalls                   86                       # Number of system calls
system.cpu.numCycles                       2103054091                       # number of cpu cycles simulated
system.cpu.numWorkItemsStarted                      0                       # number of work items this cpu started
system.cpu.numWorkItemsCompleted                    0                       # number of work items this cpu completed
system.cpu.committedInsts                   500000000                       # Number of instructions committed
system.cpu.committedOps                     730450481                       # Number of ops (including micro ops) committed
system.cpu.num_int_alu_accesses             729688887                       # Number of integer alu accesses
system.cpu.num_fp_alu_accesses                    761                       # Number of float alu accesses
system.cpu.num_func_calls                     1453959                       # number of times a function call or return occured
system.cpu.num_conditional_control_insts     31770494                       # number of instructions that are conditional controls
system.cpu.num_int_insts                    729688887                       # number of integer instructions
system.cpu.num_fp_insts                           761                       # number of float instructions
system.cpu.num_int_register_reads          1698743312                       # number of times the integer registers were read
system.cpu.num_int_register_writes          621892930                       # number of times the integer registers were written
system.cpu.num_fp_register_reads                 1183                       # number of times the floating registers were read
system.cpu.num_fp_register_writes                 497                       # number of times the floating registers were written
system.cpu.num_cc_register_reads            180840590                       # number of times the CC registers were read
system.cpu.num_cc_register_writes           276245123                       # number of times the CC registers were written
system.cpu.num_mem_refs                     295985437                       # number of memory refs
system.cpu.num_load_insts                   225946734                       # Number of load instructions
system.cpu.num_store_insts                   70038703                       # Number of store instructions
system.cpu.num_idle_cycles                          0                       # Number of idle cycles
system.cpu.num_busy_cycles                 2103054091                       # Number of busy cycles
system.cpu.not_idle_fraction                        1                       # Percentage of non-idle cycles
system.cpu.idle_fraction                            0                       # Percentage of idle cycles
system.cpu.Branches                          37843290                       # Number of branches fetched
system.cpu.op_class::No_OpClass                 94739      0.01%      0.01% # Class of executed instruction
system.cpu.op_class::IntAlu                 434349056     59.46%     59.48% # Class of executed instruction
system.cpu.op_class::IntMult                    20662      0.00%     59.48% # Class of executed instruction
system.cpu.op_class::IntDiv                       119      0.00%     59.48% # Class of executed instruction
system.cpu.op_class::FloatAdd                     468      0.00%     59.48% # Class of executed instruction
system.cpu.op_class::FloatCmp                       0      0.00%     59.48% # Class of executed instruction
system.cpu.op_class::FloatCvt                       0      0.00%     59.48% # Class of executed instruction
system.cpu.op_class::FloatMult                      0      0.00%     59.48% # Class of executed instruction
system.cpu.op_class::FloatDiv                       0      0.00%     59.48% # Class of executed instruction
system.cpu.op_class::FloatSqrt                      0      0.00%     59.48% # Class of executed instruction
system.cpu.op_class::SimdAdd                        0      0.00%     59.48% # Class of executed instruction
system.cpu.op_class::SimdAddAcc                     0      0.00%     59.48% # Class of executed instruction
system.cpu.op_class::SimdAlu                        0      0.00%     59.48% # Class of executed instruction
system.cpu.op_class::SimdCmp                        0      0.00%     59.48% # Class of executed instruction
system.cpu.op_class::SimdCvt                        0      0.00%     59.48% # Class of executed instruction
system.cpu.op_class::SimdMisc                       0      0.00%     59.48% # Class of executed instruction
system.cpu.op_class::SimdMult                       0      0.00%     59.48% # Class of executed instruction
system.cpu.op_class::SimdMultAcc                    0      0.00%     59.48% # Class of executed instruction
system.cpu.op_class::SimdShift                      0      0.00%     59.48% # Class of executed instruction
system.cpu.op_class::SimdShiftAcc                   0      0.00%     59.48% # Class of executed instruction
system.cpu.op_class::SimdSqrt                       0      0.00%     59.48% # Class of executed instruction
system.cpu.op_class::SimdFloatAdd                   0      0.00%     59.48% # Class of executed instruction
system.cpu.op_class::SimdFloatAlu                   0      0.00%     59.48% # Class of executed instruction
system.cpu.op_class::SimdFloatCmp                   0      0.00%     59.48% # Class of executed instruction
system.cpu.op_class::SimdFloatCvt                   0      0.00%     59.48% # Class of executed instruction
system.cpu.op_class::SimdFloatDiv                   0      0.00%     59.48% # Class of executed instruction
system.cpu.op_class::SimdFloatMisc                  0      0.00%     59.48% # Class of executed instruction
system.cpu.op_class::SimdFloatMult                  0      0.00%     59.48% # Class of executed instruction
system.cpu.op_class::SimdFloatMultAcc               0      0.00%     59.48% # Class of executed instruction
system.cpu.op_class::SimdFloatSqrt                  0      0.00%     59.48% # Class of executed instruction
system.cpu.op_class::MemRead                225946734     30.93%     90.41% # Class of executed instruction
system.cpu.op_class::MemWrite                70038703      9.59%    100.00% # Class of executed instruction
system.cpu.op_class::IprAccess                      0      0.00%    100.00% # Class of executed instruction
system.cpu.op_class::InstPrefetch                   0      0.00%    100.00% # Class of executed instruction
system.cpu.op_class::total                  730450481                       # Class of executed instruction
system.cpu.dcache.tags.replacements           2042531                       # number of replacements
system.cpu.dcache.tags.tagsinuse          2042.151161                       # Cycle average of tags in use
system.cpu.dcache.tags.total_refs           293940866                       # Total number of references to valid blocks.
system.cpu.dcache.tags.sampled_refs           2044579                       # Sample count of references to valid blocks.
system.cpu.dcache.tags.avg_refs            143.765962                       # Average number of references to valid blocks.
system.cpu.dcache.tags.warmup_cycle        3525446500                       # Cycle when the warmup percentage was hit.
system.cpu.dcache.tags.occ_blocks::cpu.data  2042.151161                       # Average occupied blocks per requestor
system.cpu.dcache.tags.occ_percent::cpu.data     0.997144                       # Average percentage of cache occupancy
system.cpu.dcache.tags.occ_percent::total     0.997144                       # Average percentage of cache occupancy
system.cpu.dcache.tags.occ_task_id_blocks::1024         2048                       # Occupied blocks per task id
system.cpu.dcache.tags.age_task_id_blocks_1024::1            2                       # Occupied blocks per task id
system.cpu.dcache.tags.age_task_id_blocks_1024::2           16                       # Occupied blocks per task id
system.cpu.dcache.tags.age_task_id_blocks_1024::3         1422                       # Occupied blocks per task id
system.cpu.dcache.tags.age_task_id_blocks_1024::4          608                       # Occupied blocks per task id
system.cpu.dcache.tags.occ_task_id_percent::1024            1                       # Percentage of cache occupancy per task id
system.cpu.dcache.tags.tag_accesses         594015469                       # Number of tag accesses
system.cpu.dcache.tags.data_accesses        594015469                       # Number of data accesses
system.cpu.dcache.ReadReq_hits::cpu.data    224491166                       # number of ReadReq hits
system.cpu.dcache.ReadReq_hits::total       224491166                       # number of ReadReq hits
system.cpu.dcache.WriteReq_hits::cpu.data     69449700                       # number of WriteReq hits
system.cpu.dcache.WriteReq_hits::total       69449700                       # number of WriteReq hits
system.cpu.dcache.demand_hits::cpu.data     293940866                       # number of demand (read+write) hits
system.cpu.dcache.demand_hits::total        293940866                       # number of demand (read+write) hits
system.cpu.dcache.overall_hits::cpu.data    293940866                       # number of overall hits
system.cpu.dcache.overall_hits::total       293940866                       # number of overall hits
system.cpu.dcache.ReadReq_misses::cpu.data      1439192                       # number of ReadReq misses
system.cpu.dcache.ReadReq_misses::total       1439192                       # number of ReadReq misses
system.cpu.dcache.WriteReq_misses::cpu.data       589003                       # number of WriteReq misses
system.cpu.dcache.WriteReq_misses::total       589003                       # number of WriteReq misses
system.cpu.dcache.SoftPFReq_misses::cpu.data        16384                       # number of SoftPFReq misses
system.cpu.dcache.SoftPFReq_misses::total        16384                       # number of SoftPFReq misses
system.cpu.dcache.demand_misses::cpu.data      2028195                       # number of demand (read+write) misses
system.cpu.dcache.demand_misses::total        2028195                       # number of demand (read+write) misses
system.cpu.dcache.overall_misses::cpu.data      2044579                       # number of overall misses
system.cpu.dcache.overall_misses::total       2044579                       # number of overall misses
system.cpu.dcache.ReadReq_miss_latency::cpu.data  39950364000                       # number of ReadReq miss cycles
system.cpu.dcache.ReadReq_miss_latency::total  39950364000                       # number of ReadReq miss cycles
system.cpu.dcache.WriteReq_miss_latency::cpu.data  30035922000                       # number of WriteReq miss cycles
system.cpu.dcache.WriteReq_miss_latency::total  30035922000                       # number of WriteReq miss cycles
system.cpu.dcache.demand_miss_latency::cpu.data  69986286000                       # number of demand (read+write) miss cycles
system.cpu.dcache.demand_miss_latency::total  69986286000                       # number of demand (read+write) miss cycles
system.cpu.dcache.overall_miss_latency::cpu.data  69986286000                       # number of overall miss cycles
system.cpu.dcache.overall_miss_latency::total  69986286000                       # number of overall miss cycles
system.cpu.dcache.ReadReq_accesses::cpu.data    225930358                       # number of ReadReq accesses(hits+misses)
system.cpu.dcache.ReadReq_accesses::total    225930358                       # number of ReadReq accesses(hits+misses)
system.cpu.dcache.WriteReq_accesses::cpu.data     70038703                       # number of WriteReq accesses(hits+misses)
system.cpu.dcache.WriteReq_accesses::total     70038703                       # number of WriteReq accesses(hits+misses)
system.cpu.dcache.SoftPFReq_accesses::cpu.data        16384                       # number of SoftPFReq accesses(hits+misses)
system.cpu.dcache.SoftPFReq_accesses::total        16384                       # number of SoftPFReq accesses(hits+misses)
system.cpu.dcache.demand_accesses::cpu.data    295969061                       # number of demand (read+write) accesses
system.cpu.dcache.demand_accesses::total    295969061                       # number of demand (read+write) accesses
system.cpu.dcache.overall_accesses::cpu.data    295985445                       # number of overall (read+write) accesses
system.cpu.dcache.overall_accesses::total    295985445                       # number of overall (read+write) accesses
system.cpu.dcache.ReadReq_miss_rate::cpu.data     0.006370                       # miss rate for ReadReq accesses
system.cpu.dcache.ReadReq_miss_rate::total     0.006370                       # miss rate for ReadReq accesses
system.cpu.dcache.WriteReq_miss_rate::cpu.data     0.008410                       # miss rate for WriteReq accesses
system.cpu.dcache.WriteReq_miss_rate::total     0.008410                       # miss rate for WriteReq accesses
system.cpu.dcache.SoftPFReq_miss_rate::cpu.data            1                       # miss rate for SoftPFReq accesses
system.cpu.dcache.SoftPFReq_miss_rate::total            1                       # miss rate for SoftPFReq accesses
system.cpu.dcache.demand_miss_rate::cpu.data     0.006853                       # miss rate for demand accesses
system.cpu.dcache.demand_miss_rate::total     0.006853                       # miss rate for demand accesses
system.cpu.dcache.overall_miss_rate::cpu.data     0.006908                       # miss rate for overall accesses
system.cpu.dcache.overall_miss_rate::total     0.006908                       # miss rate for overall accesses
system.cpu.dcache.ReadReq_avg_miss_latency::cpu.data 27758.884152                       # average ReadReq miss latency
system.cpu.dcache.ReadReq_avg_miss_latency::total 27758.884152                       # average ReadReq miss latency
system.cpu.dcache.WriteReq_avg_miss_latency::cpu.data 50994.514459                       # average WriteReq miss latency
system.cpu.dcache.WriteReq_avg_miss_latency::total 50994.514459                       # average WriteReq miss latency
system.cpu.dcache.demand_avg_miss_latency::cpu.data 34506.685008                       # average overall miss latency
system.cpu.dcache.demand_avg_miss_latency::total 34506.685008                       # average overall miss latency
system.cpu.dcache.overall_avg_miss_latency::cpu.data 34230.169634                       # average overall miss latency
system.cpu.dcache.overall_avg_miss_latency::total 34230.169634                       # average overall miss latency
system.cpu.dcache.blocked_cycles::no_mshrs       233570                       # number of cycles access was blocked
system.cpu.dcache.blocked_cycles::no_targets            0                       # number of cycles access was blocked
system.cpu.dcache.blocked::no_mshrs              5703                       # number of cycles access was blocked
system.cpu.dcache.blocked::no_targets               0                       # number of cycles access was blocked
system.cpu.dcache.avg_blocked_cycles::no_mshrs    40.955637                       # average number of cycles each access was blocked
system.cpu.dcache.avg_blocked_cycles::no_targets          nan                       # average number of cycles each access was blocked
system.cpu.dcache.fast_writes                       0                       # number of fast writes performed
system.cpu.dcache.cache_copies                      0                       # number of cache copies performed
system.cpu.dcache.writebacks::writebacks       956492                       # number of writebacks
system.cpu.dcache.writebacks::total            956492                       # number of writebacks
system.cpu.dcache.ReadReq_mshr_misses::cpu.data      1439192                       # number of ReadReq MSHR misses
system.cpu.dcache.ReadReq_mshr_misses::total      1439192                       # number of ReadReq MSHR misses
system.cpu.dcache.WriteReq_mshr_misses::cpu.data       589003                       # number of WriteReq MSHR misses
system.cpu.dcache.WriteReq_mshr_misses::total       589003                       # number of WriteReq MSHR misses
system.cpu.dcache.SoftPFReq_mshr_misses::cpu.data        16384                       # number of SoftPFReq MSHR misses
system.cpu.dcache.SoftPFReq_mshr_misses::total        16384                       # number of SoftPFReq MSHR misses
system.cpu.dcache.demand_mshr_misses::cpu.data      2028195                       # number of demand (read+write) MSHR misses
system.cpu.dcache.demand_mshr_misses::total      2028195                       # number of demand (read+write) MSHR misses
system.cpu.dcache.overall_mshr_misses::cpu.data      2044579                       # number of overall MSHR misses
system.cpu.dcache.overall_mshr_misses::total      2044579                       # number of overall MSHR misses
system.cpu.dcache.ReadReq_mshr_miss_latency::cpu.data  38511172000                       # number of ReadReq MSHR miss cycles
system.cpu.dcache.ReadReq_mshr_miss_latency::total  38511172000                       # number of ReadReq MSHR miss cycles
system.cpu.dcache.WriteReq_mshr_miss_latency::cpu.data  29446919000                       # number of WriteReq MSHR miss cycles
system.cpu.dcache.WriteReq_mshr_miss_latency::total  29446919000                       # number of WriteReq MSHR miss cycles
system.cpu.dcache.SoftPFReq_mshr_miss_latency::cpu.data   1288893936                       # number of SoftPFReq MSHR miss cycles
system.cpu.dcache.SoftPFReq_mshr_miss_latency::total   1288893936                       # number of SoftPFReq MSHR miss cycles
system.cpu.dcache.demand_mshr_miss_latency::cpu.data  67958091000                       # number of demand (read+write) MSHR miss cycles
system.cpu.dcache.demand_mshr_miss_latency::total  67958091000                       # number of demand (read+write) MSHR miss cycles
system.cpu.dcache.overall_mshr_miss_latency::cpu.data  69246984936                       # number of overall MSHR miss cycles
system.cpu.dcache.overall_mshr_miss_latency::total  69246984936                       # number of overall MSHR miss cycles
system.cpu.dcache.ReadReq_mshr_miss_rate::cpu.data     0.006370                       # mshr miss rate for ReadReq accesses
system.cpu.dcache.ReadReq_mshr_miss_rate::total     0.006370                       # mshr miss rate for ReadReq accesses
system.cpu.dcache.WriteReq_mshr_miss_rate::cpu.data     0.008410                       # mshr miss rate for WriteReq accesses
system.cpu.dcache.WriteReq_mshr_miss_rate::total     0.008410                       # mshr miss rate for WriteReq accesses
system.cpu.dcache.SoftPFReq_mshr_miss_rate::cpu.data            1                       # mshr miss rate for SoftPFReq accesses
system.cpu.dcache.SoftPFReq_mshr_miss_rate::total            1                       # mshr miss rate for SoftPFReq accesses
system.cpu.dcache.demand_mshr_miss_rate::cpu.data     0.006853                       # mshr miss rate for demand accesses
system.cpu.dcache.demand_mshr_miss_rate::total     0.006853                       # mshr miss rate for demand accesses
system.cpu.dcache.overall_mshr_miss_rate::cpu.data     0.006908                       # mshr miss rate for overall accesses
system.cpu.dcache.overall_mshr_miss_rate::total     0.006908                       # mshr miss rate for overall accesses
system.cpu.dcache.ReadReq_avg_mshr_miss_latency::cpu.data 26758.884152                       # average ReadReq mshr miss latency
system.cpu.dcache.ReadReq_avg_mshr_miss_latency::total 26758.884152                       # average ReadReq mshr miss latency
system.cpu.dcache.WriteReq_avg_mshr_miss_latency::cpu.data 49994.514459                       # average WriteReq mshr miss latency
system.cpu.dcache.WriteReq_avg_mshr_miss_latency::total 49994.514459                       # average WriteReq mshr miss latency
system.cpu.dcache.SoftPFReq_avg_mshr_miss_latency::cpu.data 78667.842773                       # average SoftPFReq mshr miss latency
system.cpu.dcache.SoftPFReq_avg_mshr_miss_latency::total 78667.842773                       # average SoftPFReq mshr miss latency
system.cpu.dcache.demand_avg_mshr_miss_latency::cpu.data 33506.685008                       # average overall mshr miss latency
system.cpu.dcache.demand_avg_mshr_miss_latency::total 33506.685008                       # average overall mshr miss latency
system.cpu.dcache.overall_avg_mshr_miss_latency::cpu.data 33868.578781                       # average overall mshr miss latency
system.cpu.dcache.overall_avg_mshr_miss_latency::total 33868.578781                       # average overall mshr miss latency
system.cpu.dcache.no_allocate_misses                0                       # Number of misses that were no-allocate
system.cpu.dtb_walker_cache.tags.replacements            0                       # number of replacements
system.cpu.dtb_walker_cache.tags.tagsinuse            0                       # Cycle average of tags in use
system.cpu.dtb_walker_cache.tags.total_refs            0                       # Total number of references to valid blocks.
system.cpu.dtb_walker_cache.tags.sampled_refs            0                       # Sample count of references to valid blocks.
system.cpu.dtb_walker_cache.tags.avg_refs          nan                       # Average number of references to valid blocks.
system.cpu.dtb_walker_cache.tags.warmup_cycle            0                       # Cycle when the warmup percentage was hit.
system.cpu.dtb_walker_cache.tags.tag_accesses            0                       # Number of tag accesses
system.cpu.dtb_walker_cache.tags.data_accesses            0                       # Number of data accesses
system.cpu.dtb_walker_cache.blocked_cycles::no_mshrs            0                       # number of cycles access was blocked
system.cpu.dtb_walker_cache.blocked_cycles::no_targets            0                       # number of cycles access was blocked
system.cpu.dtb_walker_cache.blocked::no_mshrs            0                       # number of cycles access was blocked
system.cpu.dtb_walker_cache.blocked::no_targets            0                       # number of cycles access was blocked
system.cpu.dtb_walker_cache.avg_blocked_cycles::no_mshrs          nan                       # average number of cycles each access was blocked
system.cpu.dtb_walker_cache.avg_blocked_cycles::no_targets          nan                       # average number of cycles each access was blocked
system.cpu.dtb_walker_cache.fast_writes             0                       # number of fast writes performed
system.cpu.dtb_walker_cache.cache_copies            0                       # number of cache copies performed
system.cpu.dtb_walker_cache.no_allocate_misses            0                       # Number of misses that were no-allocate
system.cpu.icache.tags.replacements                45                       # number of replacements
system.cpu.icache.tags.tagsinuse           670.958039                       # Cycle average of tags in use
system.cpu.icache.tags.total_refs           687396859                       # Total number of references to valid blocks.
system.cpu.icache.tags.sampled_refs              1001                       # Sample count of references to valid blocks.
system.cpu.icache.tags.avg_refs          686710.148851                       # Average number of references to valid blocks.
system.cpu.icache.tags.warmup_cycle                 0                       # Cycle when the warmup percentage was hit.
system.cpu.icache.tags.occ_blocks::cpu.inst   670.958039                       # Average occupied blocks per requestor
system.cpu.icache.tags.occ_percent::cpu.inst     0.327616                       # Average percentage of cache occupancy
system.cpu.icache.tags.occ_percent::total     0.327616                       # Average percentage of cache occupancy
system.cpu.icache.tags.occ_task_id_blocks::1024          956                       # Occupied blocks per task id
system.cpu.icache.tags.age_task_id_blocks_1024::1            7                       # Occupied blocks per task id
system.cpu.icache.tags.age_task_id_blocks_1024::3           25                       # Occupied blocks per task id
system.cpu.icache.tags.age_task_id_blocks_1024::4          924                       # Occupied blocks per task id
system.cpu.icache.tags.occ_task_id_percent::1024     0.466797                       # Percentage of cache occupancy per task id
system.cpu.icache.tags.tag_accesses        1374796721                       # Number of tag accesses
system.cpu.icache.tags.data_accesses       1374796721                       # Number of data accesses
system.cpu.icache.ReadReq_hits::cpu.inst    687396859                       # number of ReadReq hits
system.cpu.icache.ReadReq_hits::total       687396859                       # number of ReadReq hits
system.cpu.icache.demand_hits::cpu.inst     687396859                       # number of demand (read+write) hits
system.cpu.icache.demand_hits::total        687396859                       # number of demand (read+write) hits
system.cpu.icache.overall_hits::cpu.inst    687396859                       # number of overall hits
system.cpu.icache.overall_hits::total       687396859                       # number of overall hits
system.cpu.icache.ReadReq_misses::cpu.inst         1001                       # number of ReadReq misses
system.cpu.icache.ReadReq_misses::total          1001                       # number of ReadReq misses
system.cpu.icache.demand_misses::cpu.inst         1001                       # number of demand (read+write) misses
system.cpu.icache.demand_misses::total           1001                       # number of demand (read+write) misses
system.cpu.icache.overall_misses::cpu.inst         1001                       # number of overall misses
system.cpu.icache.overall_misses::total          1001                       # number of overall misses
system.cpu.icache.ReadReq_miss_latency::cpu.inst     78107000                       # number of ReadReq miss cycles
system.cpu.icache.ReadReq_miss_latency::total     78107000                       # number of ReadReq miss cycles
system.cpu.icache.demand_miss_latency::cpu.inst     78107000                       # number of demand (read+write) miss cycles
system.cpu.icache.demand_miss_latency::total     78107000                       # number of demand (read+write) miss cycles
system.cpu.icache.overall_miss_latency::cpu.inst     78107000                       # number of overall miss cycles
system.cpu.icache.overall_miss_latency::total     78107000                       # number of overall miss cycles
system.cpu.icache.ReadReq_accesses::cpu.inst    687397860                       # number of ReadReq accesses(hits+misses)
system.cpu.icache.ReadReq_accesses::total    687397860                       # number of ReadReq accesses(hits+misses)
system.cpu.icache.demand_accesses::cpu.inst    687397860                       # number of demand (read+write) accesses
system.cpu.icache.demand_accesses::total    687397860                       # number of demand (read+write) accesses
system.cpu.icache.overall_accesses::cpu.inst    687397860                       # number of overall (read+write) accesses
system.cpu.icache.overall_accesses::total    687397860                       # number of overall (read+write) accesses
system.cpu.icache.ReadReq_miss_rate::cpu.inst     0.000001                       # miss rate for ReadReq accesses
system.cpu.icache.ReadReq_miss_rate::total     0.000001                       # miss rate for ReadReq accesses
system.cpu.icache.demand_miss_rate::cpu.inst     0.000001                       # miss rate for demand accesses
system.cpu.icache.demand_miss_rate::total     0.000001                       # miss rate for demand accesses
system.cpu.icache.overall_miss_rate::cpu.inst     0.000001                       # miss rate for overall accesses
system.cpu.icache.overall_miss_rate::total     0.000001                       # miss rate for overall accesses
system.cpu.icache.ReadReq_avg_miss_latency::cpu.inst 78028.971029                       # average ReadReq miss latency
system.cpu.icache.ReadReq_avg_miss_latency::total 78028.971029                       # average ReadReq miss latency
system.cpu.icache.demand_avg_miss_latency::cpu.inst 78028.971029                       # average overall miss latency
system.cpu.icache.demand_avg_miss_latency::total 78028.971029                       # average overall miss latency
system.cpu.icache.overall_avg_miss_latency::cpu.inst 78028.971029                       # average overall miss latency
system.cpu.icache.overall_avg_miss_latency::total 78028.971029                       # average overall miss latency
system.cpu.icache.blocked_cycles::no_mshrs            0                       # number of cycles access was blocked
system.cpu.icache.blocked_cycles::no_targets            0                       # number of cycles access was blocked
system.cpu.icache.blocked::no_mshrs                 0                       # number of cycles access was blocked
system.cpu.icache.blocked::no_targets               0                       # number of cycles access was blocked
system.cpu.icache.avg_blocked_cycles::no_mshrs          nan                       # average number of cycles each access was blocked
system.cpu.icache.avg_blocked_cycles::no_targets          nan                       # average number of cycles each access was blocked
system.cpu.icache.fast_writes                       0                       # number of fast writes performed
system.cpu.icache.cache_copies                      0                       # number of cache copies performed
system.cpu.icache.writebacks::writebacks           45                       # number of writebacks
system.cpu.icache.writebacks::total                45                       # number of writebacks
system.cpu.icache.ReadReq_mshr_misses::cpu.inst         1001                       # number of ReadReq MSHR misses
system.cpu.icache.ReadReq_mshr_misses::total         1001                       # number of ReadReq MSHR misses
system.cpu.icache.demand_mshr_misses::cpu.inst         1001                       # number of demand (read+write) MSHR misses
system.cpu.icache.demand_mshr_misses::total         1001                       # number of demand (read+write) MSHR misses
system.cpu.icache.overall_mshr_misses::cpu.inst         1001                       # number of overall MSHR misses
system.cpu.icache.overall_mshr_misses::total         1001                       # number of overall MSHR misses
system.cpu.icache.ReadReq_mshr_miss_latency::cpu.inst     77106000                       # number of ReadReq MSHR miss cycles
system.cpu.icache.ReadReq_mshr_miss_latency::total     77106000                       # number of ReadReq MSHR miss cycles
system.cpu.icache.demand_mshr_miss_latency::cpu.inst     77106000                       # number of demand (read+write) MSHR miss cycles
system.cpu.icache.demand_mshr_miss_latency::total     77106000                       # number of demand (read+write) MSHR miss cycles
system.cpu.icache.overall_mshr_miss_latency::cpu.inst     77106000                       # number of overall MSHR miss cycles
system.cpu.icache.overall_mshr_miss_latency::total     77106000                       # number of overall MSHR miss cycles
system.cpu.icache.ReadReq_mshr_miss_rate::cpu.inst     0.000001                       # mshr miss rate for ReadReq accesses
system.cpu.icache.ReadReq_mshr_miss_rate::total     0.000001                       # mshr miss rate for ReadReq accesses
system.cpu.icache.demand_mshr_miss_rate::cpu.inst     0.000001                       # mshr miss rate for demand accesses
system.cpu.icache.demand_mshr_miss_rate::total     0.000001                       # mshr miss rate for demand accesses
system.cpu.icache.overall_mshr_miss_rate::cpu.inst     0.000001                       # mshr miss rate for overall accesses
system.cpu.icache.overall_mshr_miss_rate::total     0.000001                       # mshr miss rate for overall accesses
system.cpu.icache.ReadReq_avg_mshr_miss_latency::cpu.inst 77028.971029                       # average ReadReq mshr miss latency
system.cpu.icache.ReadReq_avg_mshr_miss_latency::total 77028.971029                       # average ReadReq mshr miss latency
system.cpu.icache.demand_avg_mshr_miss_latency::cpu.inst 77028.971029                       # average overall mshr miss latency
system.cpu.icache.demand_avg_mshr_miss_latency::total 77028.971029                       # average overall mshr miss latency
system.cpu.icache.overall_avg_mshr_miss_latency::cpu.inst 77028.971029                       # average overall mshr miss latency
system.cpu.icache.overall_avg_mshr_miss_latency::total 77028.971029                       # average overall mshr miss latency
system.cpu.icache.no_allocate_misses                0                       # Number of misses that were no-allocate
system.cpu.itb_walker_cache.tags.replacements            0                       # number of replacements
system.cpu.itb_walker_cache.tags.tagsinuse            0                       # Cycle average of tags in use
system.cpu.itb_walker_cache.tags.total_refs            0                       # Total number of references to valid blocks.
system.cpu.itb_walker_cache.tags.sampled_refs            0                       # Sample count of references to valid blocks.
system.cpu.itb_walker_cache.tags.avg_refs          nan                       # Average number of references to valid blocks.
system.cpu.itb_walker_cache.tags.warmup_cycle            0                       # Cycle when the warmup percentage was hit.
system.cpu.itb_walker_cache.tags.tag_accesses            0                       # Number of tag accesses
system.cpu.itb_walker_cache.tags.data_accesses            0                       # Number of data accesses
system.cpu.itb_walker_cache.blocked_cycles::no_mshrs            0                       # number of cycles access was blocked
system.cpu.itb_walker_cache.blocked_cycles::no_targets            0                       # number of cycles access was blocked
system.cpu.itb_walker_cache.blocked::no_mshrs            0                       # number of cycles access was blocked
system.cpu.itb_walker_cache.blocked::no_targets            0                       # number of cycles access was blocked
system.cpu.itb_walker_cache.avg_blocked_cycles::no_mshrs          nan                       # average number of cycles each access was blocked
system.cpu.itb_walker_cache.avg_blocked_cycles::no_targets          nan                       # average number of cycles each access was blocked
system.cpu.itb_walker_cache.fast_writes             0                       # number of fast writes performed
system.cpu.itb_walker_cache.cache_copies            0                       # number of cache copies performed
system.cpu.itb_walker_cache.no_allocate_misses            0                       # Number of misses that were no-allocate
system.l2.tags.replacements                    598646                       # number of replacements
system.l2.tags.tagsinuse                 16316.742546                       # Cycle average of tags in use
system.l2.tags.total_refs                     2883950                       # Total number of references to valid blocks.
system.l2.tags.sampled_refs                    614962                       # Sample count of references to valid blocks.
system.l2.tags.avg_refs                      4.689639                       # Average number of references to valid blocks.
system.l2.tags.warmup_cycle                3948749000                       # Cycle when the warmup percentage was hit.
system.l2.tags.occ_blocks::writebacks     6135.159017                       # Average occupied blocks per requestor
system.l2.tags.occ_blocks::cpu.inst         47.170345                       # Average occupied blocks per requestor
system.l2.tags.occ_blocks::cpu.data      10134.413184                       # Average occupied blocks per requestor
system.l2.tags.occ_percent::writebacks       0.374460                       # Average percentage of cache occupancy
system.l2.tags.occ_percent::cpu.inst         0.002879                       # Average percentage of cache occupancy
system.l2.tags.occ_percent::cpu.data         0.618555                       # Average percentage of cache occupancy
system.l2.tags.occ_percent::total            0.995895                       # Average percentage of cache occupancy
system.l2.tags.occ_task_id_blocks::1024         16316                       # Occupied blocks per task id
system.l2.tags.age_task_id_blocks_1024::1            9                       # Occupied blocks per task id
system.l2.tags.age_task_id_blocks_1024::2           10                       # Occupied blocks per task id
system.l2.tags.age_task_id_blocks_1024::3           38                       # Occupied blocks per task id
system.l2.tags.age_task_id_blocks_1024::4        16259                       # Occupied blocks per task id
system.l2.tags.occ_task_id_percent::1024     0.995850                       # Percentage of cache occupancy per task id
system.l2.tags.tag_accesses                4187474685                       # Number of tag accesses
system.l2.tags.data_accesses               4187474685                       # Number of data accesses
system.l2.WritebackDirty_hits::writebacks       956492                       # number of WritebackDirty hits
system.l2.WritebackDirty_hits::total           956492                       # number of WritebackDirty hits
system.l2.WritebackClean_hits::writebacks           45                       # number of WritebackClean hits
system.l2.WritebackClean_hits::total               45                       # number of WritebackClean hits
system.l2.ReadExReq_hits::cpu.data             287153                       # number of ReadExReq hits
system.l2.ReadExReq_hits::total                287153                       # number of ReadExReq hits
system.l2.ReadCleanReq_hits::cpu.inst               1                       # number of ReadCleanReq hits
system.l2.ReadCleanReq_hits::total                  1                       # number of ReadCleanReq hits
system.l2.ReadSharedReq_hits::cpu.data        1143078                       # number of ReadSharedReq hits
system.l2.ReadSharedReq_hits::total           1143078                       # number of ReadSharedReq hits
system.l2.demand_hits::cpu.inst                     1                       # number of demand (read+write) hits
system.l2.demand_hits::cpu.data               1430231                       # number of demand (read+write) hits
system.l2.demand_hits::total                  1430232                       # number of demand (read+write) hits
system.l2.overall_hits::cpu.inst                    1                       # number of overall hits
system.l2.overall_hits::cpu.data              1430231                       # number of overall hits
system.l2.overall_hits::total                 1430232                       # number of overall hits
system.l2.ReadExReq_misses::cpu.data           301850                       # number of ReadExReq misses
system.l2.ReadExReq_misses::total              301850                       # number of ReadExReq misses
system.l2.ReadCleanReq_misses::cpu.inst          1000                       # number of ReadCleanReq misses
system.l2.ReadCleanReq_misses::total             1000                       # number of ReadCleanReq misses
system.l2.ReadSharedReq_misses::cpu.data       312498                       # number of ReadSharedReq misses
system.l2.ReadSharedReq_misses::total          312498                       # number of ReadSharedReq misses
system.l2.demand_misses::cpu.inst                1000                       # number of demand (read+write) misses
system.l2.demand_misses::cpu.data              614348                       # number of demand (read+write) misses
system.l2.demand_misses::total                 615348                       # number of demand (read+write) misses
system.l2.overall_misses::cpu.inst               1000                       # number of overall misses
system.l2.overall_misses::cpu.data             614348                       # number of overall misses
system.l2.overall_misses::total                615348                       # number of overall misses
system.l2.ReadExReq_miss_latency::cpu.data  25548307000                       # number of ReadExReq miss cycles
system.l2.ReadExReq_miss_latency::total   25548307000                       # number of ReadExReq miss cycles
system.l2.ReadCleanReq_miss_latency::cpu.inst     75592500                       # number of ReadCleanReq miss cycles
system.l2.ReadCleanReq_miss_latency::total     75592500                       # number of ReadCleanReq miss cycles
system.l2.ReadSharedReq_miss_latency::cpu.data  25614274000                       # number of ReadSharedReq miss cycles
system.l2.ReadSharedReq_miss_latency::total  25614274000                       # number of ReadSharedReq miss cycles
system.l2.demand_miss_latency::cpu.inst      75592500                       # number of demand (read+write) miss cycles
system.l2.demand_miss_latency::cpu.data   51162581000                       # number of demand (read+write) miss cycles
system.l2.demand_miss_latency::total      51238173500                       # number of demand (read+write) miss cycles
system.l2.overall_miss_latency::cpu.inst     75592500                       # number of overall miss cycles
system.l2.overall_miss_latency::cpu.data  51162581000                       # number of overall miss cycles
system.l2.overall_miss_latency::total     51238173500                       # number of overall miss cycles
system.l2.WritebackDirty_accesses::writebacks       956492                       # number of WritebackDirty accesses(hits+misses)
system.l2.WritebackDirty_accesses::total       956492                       # number of WritebackDirty accesses(hits+misses)
system.l2.WritebackClean_accesses::writebacks           45                       # number of WritebackClean accesses(hits+misses)
system.l2.WritebackClean_accesses::total           45                       # number of WritebackClean accesses(hits+misses)
system.l2.ReadExReq_accesses::cpu.data         589003                       # number of ReadExReq accesses(hits+misses)
system.l2.ReadExReq_accesses::total            589003                       # number of ReadExReq accesses(hits+misses)
system.l2.ReadCleanReq_accesses::cpu.inst         1001                       # number of ReadCleanReq accesses(hits+misses)
system.l2.ReadCleanReq_accesses::total           1001                       # number of ReadCleanReq accesses(hits+misses)
system.l2.ReadSharedReq_accesses::cpu.data      1455576                       # number of ReadSharedReq accesses(hits+misses)
system.l2.ReadSharedReq_accesses::total       1455576                       # number of ReadSharedReq accesses(hits+misses)
system.l2.demand_accesses::cpu.inst              1001                       # number of demand (read+write) accesses
system.l2.demand_accesses::cpu.data           2044579                       # number of demand (read+write) accesses
system.l2.demand_accesses::total              2045580                       # number of demand (read+write) accesses
system.l2.overall_accesses::cpu.inst             1001                       # number of overall (read+write) accesses
system.l2.overall_accesses::cpu.data          2044579                       # number of overall (read+write) accesses
system.l2.overall_accesses::total             2045580                       # number of overall (read+write) accesses
system.l2.ReadExReq_miss_rate::cpu.data      0.512476                       # miss rate for ReadExReq accesses
system.l2.ReadExReq_miss_rate::total         0.512476                       # miss rate for ReadExReq accesses
system.l2.ReadCleanReq_miss_rate::cpu.inst     0.999001                       # miss rate for ReadCleanReq accesses
system.l2.ReadCleanReq_miss_rate::total      0.999001                       # miss rate for ReadCleanReq accesses
system.l2.ReadSharedReq_miss_rate::cpu.data     0.214690                       # miss rate for ReadSharedReq accesses
system.l2.ReadSharedReq_miss_rate::total     0.214690                       # miss rate for ReadSharedReq accesses
system.l2.demand_miss_rate::cpu.inst         0.999001                       # miss rate for demand accesses
system.l2.demand_miss_rate::cpu.data         0.300477                       # miss rate for demand accesses
system.l2.demand_miss_rate::total            0.300818                       # miss rate for demand accesses
system.l2.overall_miss_rate::cpu.inst        0.999001                       # miss rate for overall accesses
system.l2.overall_miss_rate::cpu.data        0.300477                       # miss rate for overall accesses
system.l2.overall_miss_rate::total           0.300818                       # miss rate for overall accesses
system.l2.ReadExReq_avg_miss_latency::cpu.data 84639.082326                       # average ReadExReq miss latency
system.l2.ReadExReq_avg_miss_latency::total 84639.082326                       # average ReadExReq miss latency
system.l2.ReadCleanReq_avg_miss_latency::cpu.inst 75592.500000                       # average ReadCleanReq miss latency
system.l2.ReadCleanReq_avg_miss_latency::total 75592.500000                       # average ReadCleanReq miss latency
system.l2.ReadSharedReq_avg_miss_latency::cpu.data 81966.201384                       # average ReadSharedReq miss latency
system.l2.ReadSharedReq_avg_miss_latency::total 81966.201384                       # average ReadSharedReq miss latency
system.l2.demand_avg_miss_latency::cpu.inst 75592.500000                       # average overall miss latency
system.l2.demand_avg_miss_latency::cpu.data 83279.478406                       # average overall miss latency
system.l2.demand_avg_miss_latency::total 83266.986323                       # average overall miss latency
system.l2.overall_avg_miss_latency::cpu.inst 75592.500000                       # average overall miss latency
system.l2.overall_avg_miss_latency::cpu.data 83279.478406                       # average overall miss latency
system.l2.overall_avg_miss_latency::total 83266.986323                       # average overall miss latency
system.l2.blocked_cycles::no_mshrs                  0                       # number of cycles access was blocked
system.l2.blocked_cycles::no_targets                0                       # number of cycles access was blocked
system.l2.blocked::no_mshrs                         0                       # number of cycles access was blocked
system.l2.blocked::no_targets                       0                       # number of cycles access was blocked
system.l2.avg_blocked_cycles::no_mshrs            nan                       # average number of cycles each access was blocked
system.l2.avg_blocked_cycles::no_targets          nan                       # average number of cycles each access was blocked
system.l2.fast_writes                               0                       # number of fast writes performed
system.l2.cache_copies                              0                       # number of cache copies performed
system.l2.writebacks::writebacks               369055                       # number of writebacks
system.l2.writebacks::total                    369055                       # number of writebacks
system.l2.CleanEvict_mshr_misses::writebacks           18                       # number of CleanEvict MSHR misses
system.l2.CleanEvict_mshr_misses::total            18                       # number of CleanEvict MSHR misses
system.l2.ReadExReq_mshr_misses::cpu.data       301850                       # number of ReadExReq MSHR misses
system.l2.ReadExReq_mshr_misses::total         301850                       # number of ReadExReq MSHR misses
system.l2.ReadCleanReq_mshr_misses::cpu.inst         1000                       # number of ReadCleanReq MSHR misses
system.l2.ReadCleanReq_mshr_misses::total         1000                       # number of ReadCleanReq MSHR misses
system.l2.ReadSharedReq_mshr_misses::cpu.data       312498                       # number of ReadSharedReq MSHR misses
system.l2.ReadSharedReq_mshr_misses::total       312498                       # number of ReadSharedReq MSHR misses
system.l2.demand_mshr_misses::cpu.inst           1000                       # number of demand (read+write) MSHR misses
system.l2.demand_mshr_misses::cpu.data         614348                       # number of demand (read+write) MSHR misses
system.l2.demand_mshr_misses::total            615348                       # number of demand (read+write) MSHR misses
system.l2.overall_mshr_misses::cpu.inst          1000                       # number of overall MSHR misses
system.l2.overall_mshr_misses::cpu.data        614348                       # number of overall MSHR misses
system.l2.overall_mshr_misses::total           615348                       # number of overall MSHR misses
system.l2.ReadExReq_mshr_miss_latency::cpu.data  22529807000                       # number of ReadExReq MSHR miss cycles
system.l2.ReadExReq_mshr_miss_latency::total  22529807000                       # number of ReadExReq MSHR miss cycles
system.l2.ReadCleanReq_mshr_miss_latency::cpu.inst     65592500                       # number of ReadCleanReq MSHR miss cycles
system.l2.ReadCleanReq_mshr_miss_latency::total     65592500                       # number of ReadCleanReq MSHR miss cycles
system.l2.ReadSharedReq_mshr_miss_latency::cpu.data  22489294000                       # number of ReadSharedReq MSHR miss cycles
system.l2.ReadSharedReq_mshr_miss_latency::total  22489294000                       # number of ReadSharedReq MSHR miss cycles
system.l2.demand_mshr_miss_latency::cpu.inst     65592500                       # number of demand (read+write) MSHR miss cycles
system.l2.demand_mshr_miss_latency::cpu.data  45019101000                       # number of demand (read+write) MSHR miss cycles
system.l2.demand_mshr_miss_latency::total  45084693500                       # number of demand (read+write) MSHR miss cycles
system.l2.overall_mshr_miss_latency::cpu.inst     65592500                       # number of overall MSHR miss cycles
system.l2.overall_mshr_miss_latency::cpu.data  45019101000                       # number of overall MSHR miss cycles
system.l2.overall_mshr_miss_latency::total  45084693500                       # number of overall MSHR miss cycles
system.l2.CleanEvict_mshr_miss_rate::writebacks          inf                       # mshr miss rate for CleanEvict accesses
system.l2.CleanEvict_mshr_miss_rate::total          inf                       # mshr miss rate for CleanEvict accesses
system.l2.ReadExReq_mshr_miss_rate::cpu.data     0.512476                       # mshr miss rate for ReadExReq accesses
system.l2.ReadExReq_mshr_miss_rate::total     0.512476                       # mshr miss rate for ReadExReq accesses
system.l2.ReadCleanReq_mshr_miss_rate::cpu.inst     0.999001                       # mshr miss rate for ReadCleanReq accesses
system.l2.ReadCleanReq_mshr_miss_rate::total     0.999001                       # mshr miss rate for ReadCleanReq accesses
system.l2.ReadSharedReq_mshr_miss_rate::cpu.data     0.214690                       # mshr miss rate for ReadSharedReq accesses
system.l2.ReadSharedReq_mshr_miss_rate::total     0.214690                       # mshr miss rate for ReadSharedReq accesses
system.l2.demand_mshr_miss_rate::cpu.inst     0.999001                       # mshr miss rate for demand accesses
system.l2.demand_mshr_miss_rate::cpu.data     0.300477                       # mshr miss rate for demand accesses
system.l2.demand_mshr_miss_rate::total       0.300818                       # mshr miss rate for demand accesses
system.l2.overall_mshr_miss_rate::cpu.inst     0.999001                       # mshr miss rate for overall accesses
system.l2.overall_mshr_miss_rate::cpu.data     0.300477                       # mshr miss rate for overall accesses
system.l2.overall_mshr_miss_rate::total      0.300818                       # mshr miss rate for overall accesses
system.l2.ReadExReq_avg_mshr_miss_latency::cpu.data 74639.082326                       # average ReadExReq mshr miss latency
system.l2.ReadExReq_avg_mshr_miss_latency::total 74639.082326                       # average ReadExReq mshr miss latency
system.l2.ReadCleanReq_avg_mshr_miss_latency::cpu.inst 65592.500000                       # average ReadCleanReq mshr miss latency
system.l2.ReadCleanReq_avg_mshr_miss_latency::total 65592.500000                       # average ReadCleanReq mshr miss latency
system.l2.ReadSharedReq_avg_mshr_miss_latency::cpu.data 71966.201384                       # average ReadSharedReq mshr miss latency
system.l2.ReadSharedReq_avg_mshr_miss_latency::total 71966.201384                       # average ReadSharedReq mshr miss latency
system.l2.demand_avg_mshr_miss_latency::cpu.inst 65592.500000                       # average overall mshr miss latency
system.l2.demand_avg_mshr_miss_latency::cpu.data 73279.478406                       # average overall mshr miss latency
system.l2.demand_avg_mshr_miss_latency::total 73266.986323                       # average overall mshr miss latency
system.l2.overall_avg_mshr_miss_latency::cpu.inst 65592.500000                       # average overall mshr miss latency
system.l2.overall_avg_mshr_miss_latency::cpu.data 73279.478406                       # average overall mshr miss latency
system.l2.overall_avg_mshr_miss_latency::total 73266.986323                       # average overall mshr miss latency
system.l2.no_allocate_misses                        0                       # Number of misses that were no-allocate
system.membus.trans_dist::ReadResp             313498                       # Transaction distribution
system.membus.trans_dist::WritebackDirty       369055                       # Transaction distribution
system.membus.trans_dist::CleanEvict           228854                       # Transaction distribution
system.membus.trans_dist::ReadExReq            301850                       # Transaction distribution
system.membus.trans_dist::ReadExResp           301850                       # Transaction distribution
system.membus.trans_dist::ReadSharedReq        313498                       # Transaction distribution
system.membus.pkt_count_system.l2.mem_side::system.mem_ctrls.port      1828605                       # Packet count per connected master and slave (bytes)
system.membus.pkt_count_system.l2.mem_side::total      1828605                       # Packet count per connected master and slave (bytes)
system.membus.pkt_count::total                1828605                       # Packet count per connected master and slave (bytes)
system.membus.pkt_size_system.l2.mem_side::system.mem_ctrls.port     63001792                       # Cumulative packet size per connected master and slave (bytes)
system.membus.pkt_size_system.l2.mem_side::total     63001792                       # Cumulative packet size per connected master and slave (bytes)
system.membus.pkt_size::total                63001792                       # Cumulative packet size per connected master and slave (bytes)
system.membus.snoops                                0                       # Total snoops (count)
system.membus.snoop_fanout::samples           1213257                       # Request fanout histogram
system.membus.snoop_fanout::mean                    0                       # Request fanout histogram
system.membus.snoop_fanout::stdev                   0                       # Request fanout histogram
system.membus.snoop_fanout::underflows              0      0.00%      0.00% # Request fanout histogram
system.membus.snoop_fanout::0                 1213257    100.00%    100.00% # Request fanout histogram
system.membus.snoop_fanout::1                       0      0.00%    100.00% # Request fanout histogram
system.membus.snoop_fanout::overflows               0      0.00%    100.00% # Request fanout histogram
system.membus.snoop_fanout::min_value               0                       # Request fanout histogram
system.membus.snoop_fanout::max_value               0                       # Request fanout histogram
system.membus.snoop_fanout::total             1213257                       # Request fanout histogram
system.membus.reqLayer2.occupancy          2697444000                       # Layer occupancy (ticks)
system.membus.reqLayer2.utilization               0.3                       # Layer utilization (%)
system.membus.respLayer1.occupancy         3327660000                       # Layer occupancy (ticks)
system.membus.respLayer1.utilization              0.3                       # Layer utilization (%)
system.tol2bus.snoop_filter.tot_requests      4088156                       # Total number of requests made to the snoop filter.
system.tol2bus.snoop_filter.hit_single_requests      2042576                       # Number of requests hitting in the snoop filter with a single holder of the requested data.
system.tol2bus.snoop_filter.hit_multi_requests            1                       # Number of requests hitting in the snoop filter with multiple (>1) holders of the requested data.
system.tol2bus.snoop_filter.tot_snoops            755                       # Total number of snoops made to the snoop filter.
system.tol2bus.snoop_filter.hit_single_snoops          755                       # Number of snoops hitting in the snoop filter with a single holder of the requested data.
system.tol2bus.snoop_filter.hit_multi_snoops            0                       # Number of snoops hitting in the snoop filter with multiple (>1) holders of the requested data.
system.tol2bus.trans_dist::ReadResp           1456577                       # Transaction distribution
system.tol2bus.trans_dist::WritebackDirty      1325547                       # Transaction distribution
system.tol2bus.trans_dist::WritebackClean           45                       # Transaction distribution
system.tol2bus.trans_dist::CleanEvict         1315629                       # Transaction distribution
system.tol2bus.trans_dist::ReadExReq           589003                       # Transaction distribution
system.tol2bus.trans_dist::ReadExResp          589003                       # Transaction distribution
system.tol2bus.trans_dist::ReadCleanReq          1001                       # Transaction distribution
system.tol2bus.trans_dist::ReadSharedReq      1455576                       # Transaction distribution
system.tol2bus.pkt_count_system.cpu.icache.mem_side::system.l2.cpu_side         2047                       # Packet count per connected master and slave (bytes)
system.tol2bus.pkt_count_system.cpu.dcache.mem_side::system.l2.cpu_side      6131688                       # Packet count per connected master and slave (bytes)
system.tol2bus.pkt_count::total               6133735                       # Packet count per connected master and slave (bytes)
system.tol2bus.pkt_size_system.cpu.icache.mem_side::system.l2.cpu_side        66944                       # Cumulative packet size per connected master and slave (bytes)
system.tol2bus.pkt_size_system.cpu.dcache.mem_side::system.l2.cpu_side    192068544                       # Cumulative packet size per connected master and slave (bytes)
system.tol2bus.pkt_size::total              192135488                       # Cumulative packet size per connected master and slave (bytes)
system.tol2bus.snoops                          598646                       # Total snoops (count)
system.tol2bus.snoop_fanout::samples          2644226                       # Request fanout histogram
system.tol2bus.snoop_fanout::mean            0.000286                       # Request fanout histogram
system.tol2bus.snoop_fanout::stdev           0.016906                       # Request fanout histogram
system.tol2bus.snoop_fanout::underflows             0      0.00%      0.00% # Request fanout histogram
system.tol2bus.snoop_fanout::0                2643470     99.97%     99.97% # Request fanout histogram
system.tol2bus.snoop_fanout::1                    756      0.03%    100.00% # Request fanout histogram
system.tol2bus.snoop_fanout::2                      0      0.00%    100.00% # Request fanout histogram
system.tol2bus.snoop_fanout::3                      0      0.00%    100.00% # Request fanout histogram
system.tol2bus.snoop_fanout::4                      0      0.00%    100.00% # Request fanout histogram
system.tol2bus.snoop_fanout::overflows              0      0.00%    100.00% # Request fanout histogram
system.tol2bus.snoop_fanout::min_value              0                       # Request fanout histogram
system.tol2bus.snoop_fanout::max_value              1                       # Request fanout histogram
system.tol2bus.snoop_fanout::total            2644226                       # Request fanout histogram
system.tol2bus.reqLayer0.occupancy         3000615000                       # Layer occupancy (ticks)
system.tol2bus.reqLayer0.utilization              0.3                       # Layer utilization (%)
system.tol2bus.respLayer0.occupancy           1501500                       # Layer occupancy (ticks)
system.tol2bus.respLayer0.utilization             0.0                       # Layer utilization (%)
system.tol2bus.respLayer1.occupancy        3066868500                       # Layer occupancy (ticks)
system.tol2bus.respLayer1.utilization             0.3                       # Layer utilization (%)

---------- End Simulation Statistics   ----------
