
---------- Begin Simulation Statistics ----------
sim_seconds                                  1.053350                       # Number of seconds simulated
sim_ticks                                1053350472500                       # Number of ticks simulated
final_tick                               1053350472500                       # Number of ticks from beginning of simulation (restored from checkpoints and never reset)
sim_freq                                 1000000000000                       # Frequency of simulated ticks
host_inst_rate                                  36004                       # Simulator instruction rate (inst/s)
host_op_rate                                    52598                       # Simulator op (including micro ops) rate (op/s)
host_tick_rate                               75849487                       # Simulator tick rate (ticks/s)
host_mem_usage                                 828420                       # Number of bytes of host memory used
host_seconds                                 13887.38                       # Real time elapsed on the host
sim_insts                                   500000000                       # Number of instructions simulated
sim_ops                                     730450481                       # Number of ops (including micro ops) simulated
system.voltage_domain.voltage                       1                       # Voltage in Volts
system.clk_domain.clock                          1000                       # Clock period in ticks
system.mem_ctrls.bytes_read::cpu.inst           64000                       # Number of bytes read from this memory
system.mem_ctrls.bytes_read::cpu.data        40708352                       # Number of bytes read from this memory
system.mem_ctrls.bytes_read::total           40772352                       # Number of bytes read from this memory
system.mem_ctrls.bytes_inst_read::cpu.inst        64000                       # Number of instructions bytes read from this memory
system.mem_ctrls.bytes_inst_read::total         64000                       # Number of instructions bytes read from this memory
system.mem_ctrls.bytes_written::writebacks     24549952                       # Number of bytes written to this memory
system.mem_ctrls.bytes_written::total        24549952                       # Number of bytes written to this memory
system.mem_ctrls.num_reads::cpu.inst             1000                       # Number of read requests responded to by this memory
system.mem_ctrls.num_reads::cpu.data           636068                       # Number of read requests responded to by this memory
system.mem_ctrls.num_reads::total              637068                       # Number of read requests responded to by this memory
system.mem_ctrls.num_writes::writebacks        383593                       # Number of write requests responded to by this memory
system.mem_ctrls.num_writes::total             383593                       # Number of write requests responded to by this memory
system.mem_ctrls.bw_read::cpu.inst              60759                       # Total read bandwidth from this memory (bytes/s)
system.mem_ctrls.bw_read::cpu.data           38646541                       # Total read bandwidth from this memory (bytes/s)
system.mem_ctrls.bw_read::total              38707299                       # Total read bandwidth from this memory (bytes/s)
system.mem_ctrls.bw_inst_read::cpu.inst         60759                       # Instruction read bandwidth from this memory (bytes/s)
system.mem_ctrls.bw_inst_read::total            60759                       # Instruction read bandwidth from this memory (bytes/s)
system.mem_ctrls.bw_write::writebacks        23306537                       # Write bandwidth from this memory (bytes/s)
system.mem_ctrls.bw_write::total             23306537                       # Write bandwidth from this memory (bytes/s)
system.mem_ctrls.bw_total::writebacks        23306537                       # Total bandwidth to/from this memory (bytes/s)
system.mem_ctrls.bw_total::cpu.inst             60759                       # Total bandwidth to/from this memory (bytes/s)
system.mem_ctrls.bw_total::cpu.data          38646541                       # Total bandwidth to/from this memory (bytes/s)
system.mem_ctrls.bw_total::total             62013837                       # Total bandwidth to/from this memory (bytes/s)
system.mem_ctrls.readReqs                      637068                       # Number of read requests accepted
system.mem_ctrls.writeReqs                     383593                       # Number of write requests accepted
system.mem_ctrls.readBursts                    637068                       # Number of DRAM read bursts, including those serviced by the write queue
system.mem_ctrls.writeBursts                   383593                       # Number of DRAM write bursts, including those merged in the write queue
system.mem_ctrls.bytesReadDRAM               40721280                       # Total number of bytes read from DRAM
system.mem_ctrls.bytesReadWrQ                   51072                       # Total number of bytes read from write queue
system.mem_ctrls.bytesWritten                24548416                       # Total number of bytes written to DRAM
system.mem_ctrls.bytesReadSys                40772352                       # Total read bytes from the system interface side
system.mem_ctrls.bytesWrittenSys             24549952                       # Total written bytes from the system interface side
system.mem_ctrls.servicedByWrQ                    798                       # Number of DRAM read bursts serviced by the write queue
system.mem_ctrls.mergedWrBursts                     0                       # Number of DRAM write bursts merged with an existing one
system.mem_ctrls.neitherReadNorWriteReqs       236173                       # Number of requests that are neither read nor write
system.mem_ctrls.perBankRdBursts::0             42270                       # Per bank write bursts
system.mem_ctrls.perBankRdBursts::1             40431                       # Per bank write bursts
system.mem_ctrls.perBankRdBursts::2             39109                       # Per bank write bursts
system.mem_ctrls.perBankRdBursts::3             38409                       # Per bank write bursts
system.mem_ctrls.perBankRdBursts::4             37765                       # Per bank write bursts
system.mem_ctrls.perBankRdBursts::5             38279                       # Per bank write bursts
system.mem_ctrls.perBankRdBursts::6             39491                       # Per bank write bursts
system.mem_ctrls.perBankRdBursts::7             39022                       # Per bank write bursts
system.mem_ctrls.perBankRdBursts::8             37138                       # Per bank write bursts
system.mem_ctrls.perBankRdBursts::9             36466                       # Per bank write bursts
system.mem_ctrls.perBankRdBursts::10            39569                       # Per bank write bursts
system.mem_ctrls.perBankRdBursts::11            40806                       # Per bank write bursts
system.mem_ctrls.perBankRdBursts::12            41677                       # Per bank write bursts
system.mem_ctrls.perBankRdBursts::13            41368                       # Per bank write bursts
system.mem_ctrls.perBankRdBursts::14            41962                       # Per bank write bursts
system.mem_ctrls.perBankRdBursts::15            42508                       # Per bank write bursts
system.mem_ctrls.perBankWrBursts::0             25431                       # Per bank write bursts
system.mem_ctrls.perBankWrBursts::1             24240                       # Per bank write bursts
system.mem_ctrls.perBankWrBursts::2             23539                       # Per bank write bursts
system.mem_ctrls.perBankWrBursts::3             22997                       # Per bank write bursts
system.mem_ctrls.perBankWrBursts::4             22479                       # Per bank write bursts
system.mem_ctrls.perBankWrBursts::5             22432                       # Per bank write bursts
system.mem_ctrls.perBankWrBursts::6             23039                       # Per bank write bursts
system.mem_ctrls.perBankWrBursts::7             23323                       # Per bank write bursts
system.mem_ctrls.perBankWrBursts::8             23064                       # Per bank write bursts
system.mem_ctrls.perBankWrBursts::9             22805                       # Per bank write bursts
system.mem_ctrls.perBankWrBursts::10            24196                       # Per bank write bursts
system.mem_ctrls.perBankWrBursts::11            24606                       # Per bank write bursts
system.mem_ctrls.perBankWrBursts::12            24845                       # Per bank write bursts
system.mem_ctrls.perBankWrBursts::13            25179                       # Per bank write bursts
system.mem_ctrls.perBankWrBursts::14            25617                       # Per bank write bursts
system.mem_ctrls.perBankWrBursts::15            25777                       # Per bank write bursts
system.mem_ctrls.numRdRetry                         0                       # Number of times read queue was full causing retry
system.mem_ctrls.numWrRetry                         0                       # Number of times write queue was full causing retry
system.mem_ctrls.totGap                  1053317806500                       # Total gap between requests
system.mem_ctrls.readPktSize::0                     0                       # Read request sizes (log2)
system.mem_ctrls.readPktSize::1                     0                       # Read request sizes (log2)
system.mem_ctrls.readPktSize::2                     0                       # Read request sizes (log2)
system.mem_ctrls.readPktSize::3                     0                       # Read request sizes (log2)
system.mem_ctrls.readPktSize::4                     0                       # Read request sizes (log2)
system.mem_ctrls.readPktSize::5                     0                       # Read request sizes (log2)
system.mem_ctrls.readPktSize::6                637068                       # Read request sizes (log2)
system.mem_ctrls.writePktSize::0                    0                       # Write request sizes (log2)
system.mem_ctrls.writePktSize::1                    0                       # Write request sizes (log2)
system.mem_ctrls.writePktSize::2                    0                       # Write request sizes (log2)
system.mem_ctrls.writePktSize::3                    0                       # Write request sizes (log2)
system.mem_ctrls.writePktSize::4                    0                       # Write request sizes (log2)
system.mem_ctrls.writePktSize::5                    0                       # Write request sizes (log2)
system.mem_ctrls.writePktSize::6               383593                       # Write request sizes (log2)
system.mem_ctrls.rdQLenPdf::0                  627571                       # What read queue length does an incoming req see
system.mem_ctrls.rdQLenPdf::1                    8068                       # What read queue length does an incoming req see
system.mem_ctrls.rdQLenPdf::2                     485                       # What read queue length does an incoming req see
system.mem_ctrls.rdQLenPdf::3                     146                       # What read queue length does an incoming req see
system.mem_ctrls.rdQLenPdf::4                       0                       # What read queue length does an incoming req see
system.mem_ctrls.rdQLenPdf::5                       0                       # What read queue length does an incoming req see
system.mem_ctrls.rdQLenPdf::6                       0                       # What read queue length does an incoming req see
system.mem_ctrls.rdQLenPdf::7                       0                       # What read queue length does an incoming req see
system.mem_ctrls.rdQLenPdf::8                       0                       # What read queue length does an incoming req see
system.mem_ctrls.rdQLenPdf::9                       0                       # What read queue length does an incoming req see
system.mem_ctrls.rdQLenPdf::10                      0                       # What read queue length does an incoming req see
system.mem_ctrls.rdQLenPdf::11                      0                       # What read queue length does an incoming req see
system.mem_ctrls.rdQLenPdf::12                      0                       # What read queue length does an incoming req see
system.mem_ctrls.rdQLenPdf::13                      0                       # What read queue length does an incoming req see
system.mem_ctrls.rdQLenPdf::14                      0                       # What read queue length does an incoming req see
system.mem_ctrls.rdQLenPdf::15                      0                       # What read queue length does an incoming req see
system.mem_ctrls.rdQLenPdf::16                      0                       # What read queue length does an incoming req see
system.mem_ctrls.rdQLenPdf::17                      0                       # What read queue length does an incoming req see
system.mem_ctrls.rdQLenPdf::18                      0                       # What read queue length does an incoming req see
system.mem_ctrls.rdQLenPdf::19                      0                       # What read queue length does an incoming req see
system.mem_ctrls.rdQLenPdf::20                      0                       # What read queue length does an incoming req see
system.mem_ctrls.rdQLenPdf::21                      0                       # What read queue length does an incoming req see
system.mem_ctrls.rdQLenPdf::22                      0                       # What read queue length does an incoming req see
system.mem_ctrls.rdQLenPdf::23                      0                       # What read queue length does an incoming req see
system.mem_ctrls.rdQLenPdf::24                      0                       # What read queue length does an incoming req see
system.mem_ctrls.rdQLenPdf::25                      0                       # What read queue length does an incoming req see
system.mem_ctrls.rdQLenPdf::26                      0                       # What read queue length does an incoming req see
system.mem_ctrls.rdQLenPdf::27                      0                       # What read queue length does an incoming req see
system.mem_ctrls.rdQLenPdf::28                      0                       # What read queue length does an incoming req see
system.mem_ctrls.rdQLenPdf::29                      0                       # What read queue length does an incoming req see
system.mem_ctrls.rdQLenPdf::30                      0                       # What read queue length does an incoming req see
system.mem_ctrls.rdQLenPdf::31                      0                       # What read queue length does an incoming req see
system.mem_ctrls.wrQLenPdf::0                       1                       # What write queue length does an incoming req see
system.mem_ctrls.wrQLenPdf::1                       1                       # What write queue length does an incoming req see
system.mem_ctrls.wrQLenPdf::2                       1                       # What write queue length does an incoming req see
system.mem_ctrls.wrQLenPdf::3                       1                       # What write queue length does an incoming req see
system.mem_ctrls.wrQLenPdf::4                       1                       # What write queue length does an incoming req see
system.mem_ctrls.wrQLenPdf::5                       1                       # What write queue length does an incoming req see
system.mem_ctrls.wrQLenPdf::6                       1                       # What write queue length does an incoming req see
system.mem_ctrls.wrQLenPdf::7                       1                       # What write queue length does an incoming req see
system.mem_ctrls.wrQLenPdf::8                       1                       # What write queue length does an incoming req see
system.mem_ctrls.wrQLenPdf::9                       1                       # What write queue length does an incoming req see
system.mem_ctrls.wrQLenPdf::10                      1                       # What write queue length does an incoming req see
system.mem_ctrls.wrQLenPdf::11                      1                       # What write queue length does an incoming req see
system.mem_ctrls.wrQLenPdf::12                      1                       # What write queue length does an incoming req see
system.mem_ctrls.wrQLenPdf::13                      1                       # What write queue length does an incoming req see
system.mem_ctrls.wrQLenPdf::14                      1                       # What write queue length does an incoming req see
system.mem_ctrls.wrQLenPdf::15                  13956                       # What write queue length does an incoming req see
system.mem_ctrls.wrQLenPdf::16                  15056                       # What write queue length does an incoming req see
system.mem_ctrls.wrQLenPdf::17                  22049                       # What write queue length does an incoming req see
system.mem_ctrls.wrQLenPdf::18                  22169                       # What write queue length does an incoming req see
system.mem_ctrls.wrQLenPdf::19                  22152                       # What write queue length does an incoming req see
system.mem_ctrls.wrQLenPdf::20                  22146                       # What write queue length does an incoming req see
system.mem_ctrls.wrQLenPdf::21                  22127                       # What write queue length does an incoming req see
system.mem_ctrls.wrQLenPdf::22                  22132                       # What write queue length does an incoming req see
system.mem_ctrls.wrQLenPdf::23                  22133                       # What write queue length does an incoming req see
system.mem_ctrls.wrQLenPdf::24                  22133                       # What write queue length does an incoming req see
system.mem_ctrls.wrQLenPdf::25                  22141                       # What write queue length does an incoming req see
system.mem_ctrls.wrQLenPdf::26                  22152                       # What write queue length does an incoming req see
system.mem_ctrls.wrQLenPdf::27                  22292                       # What write queue length does an incoming req see
system.mem_ctrls.wrQLenPdf::28                  22438                       # What write queue length does an incoming req see
system.mem_ctrls.wrQLenPdf::29                  22130                       # What write queue length does an incoming req see
system.mem_ctrls.wrQLenPdf::30                  22127                       # What write queue length does an incoming req see
system.mem_ctrls.wrQLenPdf::31                  22119                       # What write queue length does an incoming req see
system.mem_ctrls.wrQLenPdf::32                  22119                       # What write queue length does an incoming req see
system.mem_ctrls.wrQLenPdf::33                      6                       # What write queue length does an incoming req see
system.mem_ctrls.wrQLenPdf::34                      1                       # What write queue length does an incoming req see
system.mem_ctrls.wrQLenPdf::35                      0                       # What write queue length does an incoming req see
system.mem_ctrls.wrQLenPdf::36                      0                       # What write queue length does an incoming req see
system.mem_ctrls.wrQLenPdf::37                      0                       # What write queue length does an incoming req see
system.mem_ctrls.wrQLenPdf::38                      0                       # What write queue length does an incoming req see
system.mem_ctrls.wrQLenPdf::39                      0                       # What write queue length does an incoming req see
system.mem_ctrls.wrQLenPdf::40                      0                       # What write queue length does an incoming req see
system.mem_ctrls.wrQLenPdf::41                      0                       # What write queue length does an incoming req see
system.mem_ctrls.wrQLenPdf::42                      0                       # What write queue length does an incoming req see
system.mem_ctrls.wrQLenPdf::43                      0                       # What write queue length does an incoming req see
system.mem_ctrls.wrQLenPdf::44                      0                       # What write queue length does an incoming req see
system.mem_ctrls.wrQLenPdf::45                      0                       # What write queue length does an incoming req see
system.mem_ctrls.wrQLenPdf::46                      0                       # What write queue length does an incoming req see
system.mem_ctrls.wrQLenPdf::47                      0                       # What write queue length does an incoming req see
system.mem_ctrls.wrQLenPdf::48                      0                       # What write queue length does an incoming req see
system.mem_ctrls.wrQLenPdf::49                      0                       # What write queue length does an incoming req see
system.mem_ctrls.wrQLenPdf::50                      0                       # What write queue length does an incoming req see
system.mem_ctrls.wrQLenPdf::51                      0                       # What write queue length does an incoming req see
system.mem_ctrls.wrQLenPdf::52                      0                       # What write queue length does an incoming req see
system.mem_ctrls.wrQLenPdf::53                      0                       # What write queue length does an incoming req see
system.mem_ctrls.wrQLenPdf::54                      0                       # What write queue length does an incoming req see
system.mem_ctrls.wrQLenPdf::55                      0                       # What write queue length does an incoming req see
system.mem_ctrls.wrQLenPdf::56                      0                       # What write queue length does an incoming req see
system.mem_ctrls.wrQLenPdf::57                      0                       # What write queue length does an incoming req see
system.mem_ctrls.wrQLenPdf::58                      0                       # What write queue length does an incoming req see
system.mem_ctrls.wrQLenPdf::59                      0                       # What write queue length does an incoming req see
system.mem_ctrls.wrQLenPdf::60                      0                       # What write queue length does an incoming req see
system.mem_ctrls.wrQLenPdf::61                      0                       # What write queue length does an incoming req see
system.mem_ctrls.wrQLenPdf::62                      0                       # What write queue length does an incoming req see
system.mem_ctrls.wrQLenPdf::63                      0                       # What write queue length does an incoming req see
system.mem_ctrls.bytesPerActivate::samples       565686                       # Bytes accessed per row activation
system.mem_ctrls.bytesPerActivate::mean    115.381494                       # Bytes accessed per row activation
system.mem_ctrls.bytesPerActivate::gmean    87.033290                       # Bytes accessed per row activation
system.mem_ctrls.bytesPerActivate::stdev   145.022958                       # Bytes accessed per row activation
system.mem_ctrls.bytesPerActivate::0-127       413824     73.15%     73.15% # Bytes accessed per row activation
system.mem_ctrls.bytesPerActivate::128-255       104989     18.56%     91.71% # Bytes accessed per row activation
system.mem_ctrls.bytesPerActivate::256-383        19393      3.43%     95.14% # Bytes accessed per row activation
system.mem_ctrls.bytesPerActivate::384-511         6076      1.07%     96.22% # Bytes accessed per row activation
system.mem_ctrls.bytesPerActivate::512-639        10629      1.88%     98.10% # Bytes accessed per row activation
system.mem_ctrls.bytesPerActivate::640-767         1040      0.18%     98.28% # Bytes accessed per row activation
system.mem_ctrls.bytesPerActivate::768-895          935      0.17%     98.44% # Bytes accessed per row activation
system.mem_ctrls.bytesPerActivate::896-1023         1043      0.18%     98.63% # Bytes accessed per row activation
system.mem_ctrls.bytesPerActivate::1024-1151         7757      1.37%    100.00% # Bytes accessed per row activation
system.mem_ctrls.bytesPerActivate::total       565686                       # Bytes accessed per row activation
system.mem_ctrls.rdPerTurnAround::samples        22119                       # Reads before turning the bus around for writes
system.mem_ctrls.rdPerTurnAround::mean      28.577106                       # Reads before turning the bus around for writes
system.mem_ctrls.rdPerTurnAround::gmean     23.861196                       # Reads before turning the bus around for writes
system.mem_ctrls.rdPerTurnAround::stdev    203.022012                       # Reads before turning the bus around for writes
system.mem_ctrls.rdPerTurnAround::0-1023        22105     99.94%     99.94% # Reads before turning the bus around for writes
system.mem_ctrls.rdPerTurnAround::1024-2047            5      0.02%     99.96% # Reads before turning the bus around for writes
system.mem_ctrls.rdPerTurnAround::2048-3071            6      0.03%     99.99% # Reads before turning the bus around for writes
system.mem_ctrls.rdPerTurnAround::4096-5119            1      0.00%     99.99% # Reads before turning the bus around for writes
system.mem_ctrls.rdPerTurnAround::5120-6143            1      0.00%    100.00% # Reads before turning the bus around for writes
system.mem_ctrls.rdPerTurnAround::27648-28671            1      0.00%    100.00% # Reads before turning the bus around for writes
system.mem_ctrls.rdPerTurnAround::total         22119                       # Reads before turning the bus around for writes
system.mem_ctrls.wrPerTurnAround::samples        22119                       # Writes before turning the bus around for reads
system.mem_ctrls.wrPerTurnAround::mean      17.341155                       # Writes before turning the bus around for reads
system.mem_ctrls.wrPerTurnAround::gmean     17.313954                       # Writes before turning the bus around for reads
system.mem_ctrls.wrPerTurnAround::stdev      0.961264                       # Writes before turning the bus around for reads
system.mem_ctrls.wrPerTurnAround::16             7073     31.98%     31.98% # Writes before turning the bus around for reads
system.mem_ctrls.wrPerTurnAround::17             1074      4.86%     36.83% # Writes before turning the bus around for reads
system.mem_ctrls.wrPerTurnAround::18            13338     60.30%     97.13% # Writes before turning the bus around for reads
system.mem_ctrls.wrPerTurnAround::19              621      2.81%     99.94% # Writes before turning the bus around for reads
system.mem_ctrls.wrPerTurnAround::20               13      0.06%    100.00% # Writes before turning the bus around for reads
system.mem_ctrls.wrPerTurnAround::total         22119                       # Writes before turning the bus around for reads
system.mem_ctrls.totQLat                   9558130500                       # Total ticks spent queuing
system.mem_ctrls.totMemAccLat             21488193000                       # Total ticks spent from burst creation until serviced by the DRAM
system.mem_ctrls.totBusLat                 3181350000                       # Total ticks spent in databus transfers
system.mem_ctrls.avgQLat                     15022.13                       # Average queueing delay per DRAM burst
system.mem_ctrls.avgBusLat                    5000.00                       # Average bus latency per DRAM burst
system.mem_ctrls.avgMemAccLat                33772.13                       # Average memory access latency per DRAM burst
system.mem_ctrls.avgRdBW                        38.66                       # Average DRAM read bandwidth in MiByte/s
system.mem_ctrls.avgWrBW                        23.31                       # Average achieved write bandwidth in MiByte/s
system.mem_ctrls.avgRdBWSys                     38.71                       # Average system read bandwidth in MiByte/s
system.mem_ctrls.avgWrBWSys                     23.31                       # Average system write bandwidth in MiByte/s
system.mem_ctrls.peakBW                      12800.00                       # Theoretical peak bandwidth in MiByte/s
system.mem_ctrls.busUtil                         0.48                       # Data bus utilization in percentage
system.mem_ctrls.busUtilRead                     0.30                       # Data bus utilization in percentage for reads
system.mem_ctrls.busUtilWrite                    0.18                       # Data bus utilization in percentage for writes
system.mem_ctrls.avgRdQLen                       1.00                       # Average read queue length when enqueuing
system.mem_ctrls.avgWrQLen                      26.21                       # Average write queue length when enqueuing
system.mem_ctrls.readRowHits                   296563                       # Number of row buffer hits during reads
system.mem_ctrls.writeRowHits                  157590                       # Number of row buffer hits during writes
system.mem_ctrls.readRowHitRate                 46.61                       # Row buffer hit rate for reads
system.mem_ctrls.writeRowHitRate                41.08                       # Row buffer hit rate for writes
system.mem_ctrls.avgGap                    1031995.74                       # Average gap between requests
system.mem_ctrls.pageHitRate                    44.53                       # Row buffer hit rate, read and write combined
system.mem_ctrls_0.actEnergy               2104031160                       # Energy for activate commands per rank (pJ)
system.mem_ctrls_0.preEnergy               1148032875                       # Energy for precharge commands per rank (pJ)
system.mem_ctrls_0.readEnergy              2455252800                       # Energy for read commands per rank (pJ)
system.mem_ctrls_0.writeEnergy             1214870400                       # Energy for write commands per rank (pJ)
system.mem_ctrls_0.refreshEnergy          68799522480                       # Energy for refresh commands per rank (pJ)
system.mem_ctrls_0.actBackEnergy         205833020625                       # Energy for active background per rank (pJ)
system.mem_ctrls_0.preBackEnergy         451453221750                       # Energy for precharge background per rank (pJ)
system.mem_ctrls_0.totalEnergy           733007952090                       # Total energy per rank (pJ)
system.mem_ctrls_0.averagePower            695.884263                       # Core power per rank (mW)
system.mem_ctrls_0.memoryStateTime::IDLE 749800716000                       # Time in different power states
system.mem_ctrls_0.memoryStateTime::REF   35173580000                       # Time in different power states
system.mem_ctrls_0.memoryStateTime::PRE_PDN            0                       # Time in different power states
system.mem_ctrls_0.memoryStateTime::ACT  268373222750                       # Time in different power states
system.mem_ctrls_0.memoryStateTime::ACT_PDN            0                       # Time in different power states
system.mem_ctrls_1.actEnergy               2172555000                       # Energy for activate commands per rank (pJ)
system.mem_ctrls_1.preEnergy               1185421875                       # Energy for precharge commands per rank (pJ)
system.mem_ctrls_1.readEnergy              2507653200                       # Energy for read commands per rank (pJ)
system.mem_ctrls_1.writeEnergy             1270656720                       # Energy for write commands per rank (pJ)
system.mem_ctrls_1.refreshEnergy          68799522480                       # Energy for refresh commands per rank (pJ)
system.mem_ctrls_1.actBackEnergy         206170295040                       # Energy for active background per rank (pJ)
system.mem_ctrls_1.preBackEnergy         451157367000                       # Energy for precharge background per rank (pJ)
system.mem_ctrls_1.totalEnergy           733263471315                       # Total energy per rank (pJ)
system.mem_ctrls_1.averagePower            696.126841                       # Core power per rank (mW)
system.mem_ctrls_1.memoryStateTime::IDLE 749299790000                       # Time in different power states
system.mem_ctrls_1.memoryStateTime::REF   35173580000                       # Time in different power states
system.mem_ctrls_1.memoryStateTime::PRE_PDN            0                       # Time in different power states
system.mem_ctrls_1.memoryStateTime::ACT  268874148750                       # Time in different power states
system.mem_ctrls_1.memoryStateTime::ACT_PDN            0                       # Time in different power states
system.cpu_voltage_domain.voltage                   1                       # Voltage in Volts
system.cpu_clk_domain.clock                       500                       # Clock period in ticks
system.cpu.apic_clk_domain.clock                 8000                       # Clock period in ticks
system.cpu.workload.num_syscalls                   86                       # Number of system calls
system.cpu.numCycles                       2106700945                       # number of cpu cycles simulated
system.cpu.numWorkItemsStarted                      0                       # number of work items this cpu started
system.cpu.numWorkItemsCompleted                    0                       # number of work items this cpu completed
system.cpu.committedInsts                   500000000                       # Number of instructions committed
system.cpu.committedOps                     730450481                       # Number of ops (including micro ops) committed
system.cpu.num_int_alu_accesses             729688887                       # Number of integer alu accesses
system.cpu.num_fp_alu_accesses                    761                       # Number of float alu accesses
system.cpu.num_func_calls                     1453959                       # number of times a function call or return occured
system.cpu.num_conditional_control_insts     31770494                       # number of instructions that are conditional controls
system.cpu.num_int_insts                    729688887                       # number of integer instructions
system.cpu.num_fp_insts                           761                       # number of float instructions
system.cpu.num_int_register_reads          1698743312                       # number of times the integer registers were read
system.cpu.num_int_register_writes          621892930                       # number of times the integer registers were written
system.cpu.num_fp_register_reads                 1183                       # number of times the floating registers were read
system.cpu.num_fp_register_writes                 497                       # number of times the floating registers were written
system.cpu.num_cc_register_reads            180840590                       # number of times the CC registers were read
system.cpu.num_cc_register_writes           276245123                       # number of times the CC registers were written
system.cpu.num_mem_refs                     295985437                       # number of memory refs
system.cpu.num_load_insts                   225946734                       # Number of load instructions
system.cpu.num_store_insts                   70038703                       # Number of store instructions
system.cpu.num_idle_cycles                          0                       # Number of idle cycles
system.cpu.num_busy_cycles                 2106700945                       # Number of busy cycles
system.cpu.not_idle_fraction                        1                       # Percentage of non-idle cycles
system.cpu.idle_fraction                            0                       # Percentage of idle cycles
system.cpu.Branches                          37843290                       # Number of branches fetched
system.cpu.op_class::No_OpClass                 94739      0.01%      0.01% # Class of executed instruction
system.cpu.op_class::IntAlu                 434349056     59.46%     59.48% # Class of executed instruction
system.cpu.op_class::IntMult                    20662      0.00%     59.48% # Class of executed instruction
system.cpu.op_class::IntDiv                       119      0.00%     59.48% # Class of executed instruction
system.cpu.op_class::FloatAdd                     468      0.00%     59.48% # Class of executed instruction
system.cpu.op_class::FloatCmp                       0      0.00%     59.48% # Class of executed instruction
system.cpu.op_class::FloatCvt                       0      0.00%     59.48% # Class of executed instruction
system.cpu.op_class::FloatMult                      0      0.00%     59.48% # Class of executed instruction
system.cpu.op_class::FloatDiv                       0      0.00%     59.48% # Class of executed instruction
system.cpu.op_class::FloatSqrt                      0      0.00%     59.48% # Class of executed instruction
system.cpu.op_class::SimdAdd                        0      0.00%     59.48% # Class of executed instruction
system.cpu.op_class::SimdAddAcc                     0      0.00%     59.48% # Class of executed instruction
system.cpu.op_class::SimdAlu                        0      0.00%     59.48% # Class of executed instruction
system.cpu.op_class::SimdCmp                        0      0.00%     59.48% # Class of executed instruction
system.cpu.op_class::SimdCvt                        0      0.00%     59.48% # Class of executed instruction
system.cpu.op_class::SimdMisc                       0      0.00%     59.48% # Class of executed instruction
system.cpu.op_class::SimdMult                       0      0.00%     59.48% # Class of executed instruction
system.cpu.op_class::SimdMultAcc                    0      0.00%     59.48% # Class of executed instruction
system.cpu.op_class::SimdShift                      0      0.00%     59.48% # Class of executed instruction
system.cpu.op_class::SimdShiftAcc                   0      0.00%     59.48% # Class of executed instruction
system.cpu.op_class::SimdSqrt                       0      0.00%     59.48% # Class of executed instruction
system.cpu.op_class::SimdFloatAdd                   0      0.00%     59.48% # Class of executed instruction
system.cpu.op_class::SimdFloatAlu                   0      0.00%     59.48% # Class of executed instruction
system.cpu.op_class::SimdFloatCmp                   0      0.00%     59.48% # Class of executed instruction
system.cpu.op_class::SimdFloatCvt                   0      0.00%     59.48% # Class of executed instruction
system.cpu.op_class::SimdFloatDiv                   0      0.00%     59.48% # Class of executed instruction
system.cpu.op_class::SimdFloatMisc                  0      0.00%     59.48% # Class of executed instruction
system.cpu.op_class::SimdFloatMult                  0      0.00%     59.48% # Class of executed instruction
system.cpu.op_class::SimdFloatMultAcc               0      0.00%     59.48% # Class of executed instruction
system.cpu.op_class::SimdFloatSqrt                  0      0.00%     59.48% # Class of executed instruction
system.cpu.op_class::MemRead                225946734     30.93%     90.41% # Class of executed instruction
system.cpu.op_class::MemWrite                70038703      9.59%    100.00% # Class of executed instruction
system.cpu.op_class::IprAccess                      0      0.00%    100.00% # Class of executed instruction
system.cpu.op_class::InstPrefetch                   0      0.00%    100.00% # Class of executed instruction
system.cpu.op_class::total                  730450481                       # Class of executed instruction
system.cpu.dcache.tags.replacements           2042531                       # number of replacements
system.cpu.dcache.tags.tagsinuse          2042.162592                       # Cycle average of tags in use
system.cpu.dcache.tags.total_refs           293940866                       # Total number of references to valid blocks.
system.cpu.dcache.tags.sampled_refs           2044579                       # Sample count of references to valid blocks.
system.cpu.dcache.tags.avg_refs            143.765962                       # Average number of references to valid blocks.
system.cpu.dcache.tags.warmup_cycle        3524646500                       # Cycle when the warmup percentage was hit.
system.cpu.dcache.tags.occ_blocks::cpu.data  2042.162592                       # Average occupied blocks per requestor
system.cpu.dcache.tags.occ_percent::cpu.data     0.997150                       # Average percentage of cache occupancy
system.cpu.dcache.tags.occ_percent::total     0.997150                       # Average percentage of cache occupancy
system.cpu.dcache.tags.occ_task_id_blocks::1024         2048                       # Occupied blocks per task id
system.cpu.dcache.tags.age_task_id_blocks_1024::1            2                       # Occupied blocks per task id
system.cpu.dcache.tags.age_task_id_blocks_1024::2           16                       # Occupied blocks per task id
system.cpu.dcache.tags.age_task_id_blocks_1024::3         1422                       # Occupied blocks per task id
system.cpu.dcache.tags.age_task_id_blocks_1024::4          608                       # Occupied blocks per task id
system.cpu.dcache.tags.occ_task_id_percent::1024            1                       # Percentage of cache occupancy per task id
system.cpu.dcache.tags.tag_accesses         594015469                       # Number of tag accesses
system.cpu.dcache.tags.data_accesses        594015469                       # Number of data accesses
system.cpu.dcache.ReadReq_hits::cpu.data    224491166                       # number of ReadReq hits
system.cpu.dcache.ReadReq_hits::total       224491166                       # number of ReadReq hits
system.cpu.dcache.WriteReq_hits::cpu.data     69449700                       # number of WriteReq hits
system.cpu.dcache.WriteReq_hits::total       69449700                       # number of WriteReq hits
system.cpu.dcache.demand_hits::cpu.data     293940866                       # number of demand (read+write) hits
system.cpu.dcache.demand_hits::total        293940866                       # number of demand (read+write) hits
system.cpu.dcache.overall_hits::cpu.data    293940866                       # number of overall hits
system.cpu.dcache.overall_hits::total       293940866                       # number of overall hits
system.cpu.dcache.ReadReq_misses::cpu.data      1439192                       # number of ReadReq misses
system.cpu.dcache.ReadReq_misses::total       1439192                       # number of ReadReq misses
system.cpu.dcache.WriteReq_misses::cpu.data       589003                       # number of WriteReq misses
system.cpu.dcache.WriteReq_misses::total       589003                       # number of WriteReq misses
system.cpu.dcache.SoftPFReq_misses::cpu.data        16384                       # number of SoftPFReq misses
system.cpu.dcache.SoftPFReq_misses::total        16384                       # number of SoftPFReq misses
system.cpu.dcache.demand_misses::cpu.data      2028195                       # number of demand (read+write) misses
system.cpu.dcache.demand_misses::total        2028195                       # number of demand (read+write) misses
system.cpu.dcache.overall_misses::cpu.data      2044579                       # number of overall misses
system.cpu.dcache.overall_misses::total       2044579                       # number of overall misses
system.cpu.dcache.ReadReq_miss_latency::cpu.data  40365030500                       # number of ReadReq miss cycles
system.cpu.dcache.ReadReq_miss_latency::total  40365030500                       # number of ReadReq miss cycles
system.cpu.dcache.WriteReq_miss_latency::cpu.data  31444250000                       # number of WriteReq miss cycles
system.cpu.dcache.WriteReq_miss_latency::total  31444250000                       # number of WriteReq miss cycles
system.cpu.dcache.demand_miss_latency::cpu.data  71809280500                       # number of demand (read+write) miss cycles
system.cpu.dcache.demand_miss_latency::total  71809280500                       # number of demand (read+write) miss cycles
system.cpu.dcache.overall_miss_latency::cpu.data  71809280500                       # number of overall miss cycles
system.cpu.dcache.overall_miss_latency::total  71809280500                       # number of overall miss cycles
system.cpu.dcache.ReadReq_accesses::cpu.data    225930358                       # number of ReadReq accesses(hits+misses)
system.cpu.dcache.ReadReq_accesses::total    225930358                       # number of ReadReq accesses(hits+misses)
system.cpu.dcache.WriteReq_accesses::cpu.data     70038703                       # number of WriteReq accesses(hits+misses)
system.cpu.dcache.WriteReq_accesses::total     70038703                       # number of WriteReq accesses(hits+misses)
system.cpu.dcache.SoftPFReq_accesses::cpu.data        16384                       # number of SoftPFReq accesses(hits+misses)
system.cpu.dcache.SoftPFReq_accesses::total        16384                       # number of SoftPFReq accesses(hits+misses)
system.cpu.dcache.demand_accesses::cpu.data    295969061                       # number of demand (read+write) accesses
system.cpu.dcache.demand_accesses::total    295969061                       # number of demand (read+write) accesses
system.cpu.dcache.overall_accesses::cpu.data    295985445                       # number of overall (read+write) accesses
system.cpu.dcache.overall_accesses::total    295985445                       # number of overall (read+write) accesses
system.cpu.dcache.ReadReq_miss_rate::cpu.data     0.006370                       # miss rate for ReadReq accesses
system.cpu.dcache.ReadReq_miss_rate::total     0.006370                       # miss rate for ReadReq accesses
system.cpu.dcache.WriteReq_miss_rate::cpu.data     0.008410                       # miss rate for WriteReq accesses
system.cpu.dcache.WriteReq_miss_rate::total     0.008410                       # miss rate for WriteReq accesses
system.cpu.dcache.SoftPFReq_miss_rate::cpu.data            1                       # miss rate for SoftPFReq accesses
system.cpu.dcache.SoftPFReq_miss_rate::total            1                       # miss rate for SoftPFReq accesses
system.cpu.dcache.demand_miss_rate::cpu.data     0.006853                       # miss rate for demand accesses
system.cpu.dcache.demand_miss_rate::total     0.006853                       # miss rate for demand accesses
system.cpu.dcache.overall_miss_rate::cpu.data     0.006908                       # miss rate for overall accesses
system.cpu.dcache.overall_miss_rate::total     0.006908                       # miss rate for overall accesses
system.cpu.dcache.ReadReq_avg_miss_latency::cpu.data 28047.008669                       # average ReadReq miss latency
system.cpu.dcache.ReadReq_avg_miss_latency::total 28047.008669                       # average ReadReq miss latency
system.cpu.dcache.WriteReq_avg_miss_latency::cpu.data 53385.551517                       # average WriteReq miss latency
system.cpu.dcache.WriteReq_avg_miss_latency::total 53385.551517                       # average WriteReq miss latency
system.cpu.dcache.demand_avg_miss_latency::cpu.data 35405.511058                       # average overall miss latency
system.cpu.dcache.demand_avg_miss_latency::total 35405.511058                       # average overall miss latency
system.cpu.dcache.overall_avg_miss_latency::cpu.data 35121.793044                       # average overall miss latency
system.cpu.dcache.overall_avg_miss_latency::total 35121.793044                       # average overall miss latency
system.cpu.dcache.blocked_cycles::no_mshrs       234387                       # number of cycles access was blocked
system.cpu.dcache.blocked_cycles::no_targets            0                       # number of cycles access was blocked
system.cpu.dcache.blocked::no_mshrs              5664                       # number of cycles access was blocked
system.cpu.dcache.blocked::no_targets               0                       # number of cycles access was blocked
system.cpu.dcache.avg_blocked_cycles::no_mshrs    41.381886                       # average number of cycles each access was blocked
system.cpu.dcache.avg_blocked_cycles::no_targets          nan                       # average number of cycles each access was blocked
system.cpu.dcache.fast_writes                       0                       # number of fast writes performed
system.cpu.dcache.cache_copies                      0                       # number of cache copies performed
system.cpu.dcache.writebacks::writebacks       958266                       # number of writebacks
system.cpu.dcache.writebacks::total            958266                       # number of writebacks
system.cpu.dcache.ReadReq_mshr_misses::cpu.data      1439192                       # number of ReadReq MSHR misses
system.cpu.dcache.ReadReq_mshr_misses::total      1439192                       # number of ReadReq MSHR misses
system.cpu.dcache.WriteReq_mshr_misses::cpu.data       589003                       # number of WriteReq MSHR misses
system.cpu.dcache.WriteReq_mshr_misses::total       589003                       # number of WriteReq MSHR misses
system.cpu.dcache.SoftPFReq_mshr_misses::cpu.data        16384                       # number of SoftPFReq MSHR misses
system.cpu.dcache.SoftPFReq_mshr_misses::total        16384                       # number of SoftPFReq MSHR misses
system.cpu.dcache.demand_mshr_misses::cpu.data      2028195                       # number of demand (read+write) MSHR misses
system.cpu.dcache.demand_mshr_misses::total      2028195                       # number of demand (read+write) MSHR misses
system.cpu.dcache.overall_mshr_misses::cpu.data      2044579                       # number of overall MSHR misses
system.cpu.dcache.overall_mshr_misses::total      2044579                       # number of overall MSHR misses
system.cpu.dcache.ReadReq_mshr_miss_latency::cpu.data  38925838500                       # number of ReadReq MSHR miss cycles
system.cpu.dcache.ReadReq_mshr_miss_latency::total  38925838500                       # number of ReadReq MSHR miss cycles
system.cpu.dcache.WriteReq_mshr_miss_latency::cpu.data  30855247000                       # number of WriteReq MSHR miss cycles
system.cpu.dcache.WriteReq_mshr_miss_latency::total  30855247000                       # number of WriteReq MSHR miss cycles
system.cpu.dcache.SoftPFReq_mshr_miss_latency::cpu.data   1289242954                       # number of SoftPFReq MSHR miss cycles
system.cpu.dcache.SoftPFReq_mshr_miss_latency::total   1289242954                       # number of SoftPFReq MSHR miss cycles
system.cpu.dcache.demand_mshr_miss_latency::cpu.data  69781085500                       # number of demand (read+write) MSHR miss cycles
system.cpu.dcache.demand_mshr_miss_latency::total  69781085500                       # number of demand (read+write) MSHR miss cycles
system.cpu.dcache.overall_mshr_miss_latency::cpu.data  71070328454                       # number of overall MSHR miss cycles
system.cpu.dcache.overall_mshr_miss_latency::total  71070328454                       # number of overall MSHR miss cycles
system.cpu.dcache.ReadReq_mshr_miss_rate::cpu.data     0.006370                       # mshr miss rate for ReadReq accesses
system.cpu.dcache.ReadReq_mshr_miss_rate::total     0.006370                       # mshr miss rate for ReadReq accesses
system.cpu.dcache.WriteReq_mshr_miss_rate::cpu.data     0.008410                       # mshr miss rate for WriteReq accesses
system.cpu.dcache.WriteReq_mshr_miss_rate::total     0.008410                       # mshr miss rate for WriteReq accesses
system.cpu.dcache.SoftPFReq_mshr_miss_rate::cpu.data            1                       # mshr miss rate for SoftPFReq accesses
system.cpu.dcache.SoftPFReq_mshr_miss_rate::total            1                       # mshr miss rate for SoftPFReq accesses
system.cpu.dcache.demand_mshr_miss_rate::cpu.data     0.006853                       # mshr miss rate for demand accesses
system.cpu.dcache.demand_mshr_miss_rate::total     0.006853                       # mshr miss rate for demand accesses
system.cpu.dcache.overall_mshr_miss_rate::cpu.data     0.006908                       # mshr miss rate for overall accesses
system.cpu.dcache.overall_mshr_miss_rate::total     0.006908                       # mshr miss rate for overall accesses
system.cpu.dcache.ReadReq_avg_mshr_miss_latency::cpu.data 27047.008669                       # average ReadReq mshr miss latency
system.cpu.dcache.ReadReq_avg_mshr_miss_latency::total 27047.008669                       # average ReadReq mshr miss latency
system.cpu.dcache.WriteReq_avg_mshr_miss_latency::cpu.data 52385.551517                       # average WriteReq mshr miss latency
system.cpu.dcache.WriteReq_avg_mshr_miss_latency::total 52385.551517                       # average WriteReq mshr miss latency
system.cpu.dcache.SoftPFReq_avg_mshr_miss_latency::cpu.data 78689.145142                       # average SoftPFReq mshr miss latency
system.cpu.dcache.SoftPFReq_avg_mshr_miss_latency::total 78689.145142                       # average SoftPFReq mshr miss latency
system.cpu.dcache.demand_avg_mshr_miss_latency::cpu.data 34405.511058                       # average overall mshr miss latency
system.cpu.dcache.demand_avg_mshr_miss_latency::total 34405.511058                       # average overall mshr miss latency
system.cpu.dcache.overall_avg_mshr_miss_latency::cpu.data 34760.372895                       # average overall mshr miss latency
system.cpu.dcache.overall_avg_mshr_miss_latency::total 34760.372895                       # average overall mshr miss latency
system.cpu.dcache.no_allocate_misses                0                       # Number of misses that were no-allocate
system.cpu.dtb_walker_cache.tags.replacements            0                       # number of replacements
system.cpu.dtb_walker_cache.tags.tagsinuse            0                       # Cycle average of tags in use
system.cpu.dtb_walker_cache.tags.total_refs            0                       # Total number of references to valid blocks.
system.cpu.dtb_walker_cache.tags.sampled_refs            0                       # Sample count of references to valid blocks.
system.cpu.dtb_walker_cache.tags.avg_refs          nan                       # Average number of references to valid blocks.
system.cpu.dtb_walker_cache.tags.warmup_cycle            0                       # Cycle when the warmup percentage was hit.
system.cpu.dtb_walker_cache.tags.tag_accesses            0                       # Number of tag accesses
system.cpu.dtb_walker_cache.tags.data_accesses            0                       # Number of data accesses
system.cpu.dtb_walker_cache.blocked_cycles::no_mshrs            0                       # number of cycles access was blocked
system.cpu.dtb_walker_cache.blocked_cycles::no_targets            0                       # number of cycles access was blocked
system.cpu.dtb_walker_cache.blocked::no_mshrs            0                       # number of cycles access was blocked
system.cpu.dtb_walker_cache.blocked::no_targets            0                       # number of cycles access was blocked
system.cpu.dtb_walker_cache.avg_blocked_cycles::no_mshrs          nan                       # average number of cycles each access was blocked
system.cpu.dtb_walker_cache.avg_blocked_cycles::no_targets          nan                       # average number of cycles each access was blocked
system.cpu.dtb_walker_cache.fast_writes             0                       # number of fast writes performed
system.cpu.dtb_walker_cache.cache_copies            0                       # number of cache copies performed
system.cpu.dtb_walker_cache.no_allocate_misses            0                       # Number of misses that were no-allocate
system.cpu.icache.tags.replacements                45                       # number of replacements
system.cpu.icache.tags.tagsinuse           670.881802                       # Cycle average of tags in use
system.cpu.icache.tags.total_refs           687396859                       # Total number of references to valid blocks.
system.cpu.icache.tags.sampled_refs              1001                       # Sample count of references to valid blocks.
system.cpu.icache.tags.avg_refs          686710.148851                       # Average number of references to valid blocks.
system.cpu.icache.tags.warmup_cycle                 0                       # Cycle when the warmup percentage was hit.
system.cpu.icache.tags.occ_blocks::cpu.inst   670.881802                       # Average occupied blocks per requestor
system.cpu.icache.tags.occ_percent::cpu.inst     0.327579                       # Average percentage of cache occupancy
system.cpu.icache.tags.occ_percent::total     0.327579                       # Average percentage of cache occupancy
system.cpu.icache.tags.occ_task_id_blocks::1024          956                       # Occupied blocks per task id
system.cpu.icache.tags.age_task_id_blocks_1024::1            7                       # Occupied blocks per task id
system.cpu.icache.tags.age_task_id_blocks_1024::3           25                       # Occupied blocks per task id
system.cpu.icache.tags.age_task_id_blocks_1024::4          924                       # Occupied blocks per task id
system.cpu.icache.tags.occ_task_id_percent::1024     0.466797                       # Percentage of cache occupancy per task id
system.cpu.icache.tags.tag_accesses        1374796721                       # Number of tag accesses
system.cpu.icache.tags.data_accesses       1374796721                       # Number of data accesses
system.cpu.icache.ReadReq_hits::cpu.inst    687396859                       # number of ReadReq hits
system.cpu.icache.ReadReq_hits::total       687396859                       # number of ReadReq hits
system.cpu.icache.demand_hits::cpu.inst     687396859                       # number of demand (read+write) hits
system.cpu.icache.demand_hits::total        687396859                       # number of demand (read+write) hits
system.cpu.icache.overall_hits::cpu.inst    687396859                       # number of overall hits
system.cpu.icache.overall_hits::total       687396859                       # number of overall hits
system.cpu.icache.ReadReq_misses::cpu.inst         1001                       # number of ReadReq misses
system.cpu.icache.ReadReq_misses::total          1001                       # number of ReadReq misses
system.cpu.icache.demand_misses::cpu.inst         1001                       # number of demand (read+write) misses
system.cpu.icache.demand_misses::total           1001                       # number of demand (read+write) misses
system.cpu.icache.overall_misses::cpu.inst         1001                       # number of overall misses
system.cpu.icache.overall_misses::total          1001                       # number of overall misses
system.cpu.icache.ReadReq_miss_latency::cpu.inst     78033500                       # number of ReadReq miss cycles
system.cpu.icache.ReadReq_miss_latency::total     78033500                       # number of ReadReq miss cycles
system.cpu.icache.demand_miss_latency::cpu.inst     78033500                       # number of demand (read+write) miss cycles
system.cpu.icache.demand_miss_latency::total     78033500                       # number of demand (read+write) miss cycles
system.cpu.icache.overall_miss_latency::cpu.inst     78033500                       # number of overall miss cycles
system.cpu.icache.overall_miss_latency::total     78033500                       # number of overall miss cycles
system.cpu.icache.ReadReq_accesses::cpu.inst    687397860                       # number of ReadReq accesses(hits+misses)
system.cpu.icache.ReadReq_accesses::total    687397860                       # number of ReadReq accesses(hits+misses)
system.cpu.icache.demand_accesses::cpu.inst    687397860                       # number of demand (read+write) accesses
system.cpu.icache.demand_accesses::total    687397860                       # number of demand (read+write) accesses
system.cpu.icache.overall_accesses::cpu.inst    687397860                       # number of overall (read+write) accesses
system.cpu.icache.overall_accesses::total    687397860                       # number of overall (read+write) accesses
system.cpu.icache.ReadReq_miss_rate::cpu.inst     0.000001                       # miss rate for ReadReq accesses
system.cpu.icache.ReadReq_miss_rate::total     0.000001                       # miss rate for ReadReq accesses
system.cpu.icache.demand_miss_rate::cpu.inst     0.000001                       # miss rate for demand accesses
system.cpu.icache.demand_miss_rate::total     0.000001                       # miss rate for demand accesses
system.cpu.icache.overall_miss_rate::cpu.inst     0.000001                       # miss rate for overall accesses
system.cpu.icache.overall_miss_rate::total     0.000001                       # miss rate for overall accesses
system.cpu.icache.ReadReq_avg_miss_latency::cpu.inst 77955.544456                       # average ReadReq miss latency
system.cpu.icache.ReadReq_avg_miss_latency::total 77955.544456                       # average ReadReq miss latency
system.cpu.icache.demand_avg_miss_latency::cpu.inst 77955.544456                       # average overall miss latency
system.cpu.icache.demand_avg_miss_latency::total 77955.544456                       # average overall miss latency
system.cpu.icache.overall_avg_miss_latency::cpu.inst 77955.544456                       # average overall miss latency
system.cpu.icache.overall_avg_miss_latency::total 77955.544456                       # average overall miss latency
system.cpu.icache.blocked_cycles::no_mshrs            0                       # number of cycles access was blocked
system.cpu.icache.blocked_cycles::no_targets            0                       # number of cycles access was blocked
system.cpu.icache.blocked::no_mshrs                 0                       # number of cycles access was blocked
system.cpu.icache.blocked::no_targets               0                       # number of cycles access was blocked
system.cpu.icache.avg_blocked_cycles::no_mshrs          nan                       # average number of cycles each access was blocked
system.cpu.icache.avg_blocked_cycles::no_targets          nan                       # average number of cycles each access was blocked
system.cpu.icache.fast_writes                       0                       # number of fast writes performed
system.cpu.icache.cache_copies                      0                       # number of cache copies performed
system.cpu.icache.writebacks::writebacks           45                       # number of writebacks
system.cpu.icache.writebacks::total                45                       # number of writebacks
system.cpu.icache.ReadReq_mshr_misses::cpu.inst         1001                       # number of ReadReq MSHR misses
system.cpu.icache.ReadReq_mshr_misses::total         1001                       # number of ReadReq MSHR misses
system.cpu.icache.demand_mshr_misses::cpu.inst         1001                       # number of demand (read+write) MSHR misses
system.cpu.icache.demand_mshr_misses::total         1001                       # number of demand (read+write) MSHR misses
system.cpu.icache.overall_mshr_misses::cpu.inst         1001                       # number of overall MSHR misses
system.cpu.icache.overall_mshr_misses::total         1001                       # number of overall MSHR misses
system.cpu.icache.ReadReq_mshr_miss_latency::cpu.inst     77032500                       # number of ReadReq MSHR miss cycles
system.cpu.icache.ReadReq_mshr_miss_latency::total     77032500                       # number of ReadReq MSHR miss cycles
system.cpu.icache.demand_mshr_miss_latency::cpu.inst     77032500                       # number of demand (read+write) MSHR miss cycles
system.cpu.icache.demand_mshr_miss_latency::total     77032500                       # number of demand (read+write) MSHR miss cycles
system.cpu.icache.overall_mshr_miss_latency::cpu.inst     77032500                       # number of overall MSHR miss cycles
system.cpu.icache.overall_mshr_miss_latency::total     77032500                       # number of overall MSHR miss cycles
system.cpu.icache.ReadReq_mshr_miss_rate::cpu.inst     0.000001                       # mshr miss rate for ReadReq accesses
system.cpu.icache.ReadReq_mshr_miss_rate::total     0.000001                       # mshr miss rate for ReadReq accesses
system.cpu.icache.demand_mshr_miss_rate::cpu.inst     0.000001                       # mshr miss rate for demand accesses
system.cpu.icache.demand_mshr_miss_rate::total     0.000001                       # mshr miss rate for demand accesses
system.cpu.icache.overall_mshr_miss_rate::cpu.inst     0.000001                       # mshr miss rate for overall accesses
system.cpu.icache.overall_mshr_miss_rate::total     0.000001                       # mshr miss rate for overall accesses
system.cpu.icache.ReadReq_avg_mshr_miss_latency::cpu.inst 76955.544456                       # average ReadReq mshr miss latency
system.cpu.icache.ReadReq_avg_mshr_miss_latency::total 76955.544456                       # average ReadReq mshr miss latency
system.cpu.icache.demand_avg_mshr_miss_latency::cpu.inst 76955.544456                       # average overall mshr miss latency
system.cpu.icache.demand_avg_mshr_miss_latency::total 76955.544456                       # average overall mshr miss latency
system.cpu.icache.overall_avg_mshr_miss_latency::cpu.inst 76955.544456                       # average overall mshr miss latency
system.cpu.icache.overall_avg_mshr_miss_latency::total 76955.544456                       # average overall mshr miss latency
system.cpu.icache.no_allocate_misses                0                       # Number of misses that were no-allocate
system.cpu.itb_walker_cache.tags.replacements            0                       # number of replacements
system.cpu.itb_walker_cache.tags.tagsinuse            0                       # Cycle average of tags in use
system.cpu.itb_walker_cache.tags.total_refs            0                       # Total number of references to valid blocks.
system.cpu.itb_walker_cache.tags.sampled_refs            0                       # Sample count of references to valid blocks.
system.cpu.itb_walker_cache.tags.avg_refs          nan                       # Average number of references to valid blocks.
system.cpu.itb_walker_cache.tags.warmup_cycle            0                       # Cycle when the warmup percentage was hit.
system.cpu.itb_walker_cache.tags.tag_accesses            0                       # Number of tag accesses
system.cpu.itb_walker_cache.tags.data_accesses            0                       # Number of data accesses
system.cpu.itb_walker_cache.blocked_cycles::no_mshrs            0                       # number of cycles access was blocked
system.cpu.itb_walker_cache.blocked_cycles::no_targets            0                       # number of cycles access was blocked
system.cpu.itb_walker_cache.blocked::no_mshrs            0                       # number of cycles access was blocked
system.cpu.itb_walker_cache.blocked::no_targets            0                       # number of cycles access was blocked
system.cpu.itb_walker_cache.avg_blocked_cycles::no_mshrs          nan                       # average number of cycles each access was blocked
system.cpu.itb_walker_cache.avg_blocked_cycles::no_targets          nan                       # average number of cycles each access was blocked
system.cpu.itb_walker_cache.fast_writes             0                       # number of fast writes performed
system.cpu.itb_walker_cache.cache_copies            0                       # number of cache copies performed
system.cpu.itb_walker_cache.no_allocate_misses            0                       # Number of misses that were no-allocate
system.l2.tags.replacements                    620661                       # number of replacements
system.l2.tags.tagsinuse                 15740.662782                       # Cycle average of tags in use
system.l2.tags.total_refs                     2860654                       # Total number of references to valid blocks.
system.l2.tags.sampled_refs                    636741                       # Sample count of references to valid blocks.
system.l2.tags.avg_refs                      4.492649                       # Average number of references to valid blocks.
system.l2.tags.warmup_cycle                3962381000                       # Cycle when the warmup percentage was hit.
system.l2.tags.occ_blocks::writebacks     6015.381182                       # Average occupied blocks per requestor
system.l2.tags.occ_blocks::cpu.inst         34.716234                       # Average occupied blocks per requestor
system.l2.tags.occ_blocks::cpu.data       9690.565366                       # Average occupied blocks per requestor
system.l2.tags.occ_percent::writebacks       0.367150                       # Average percentage of cache occupancy
system.l2.tags.occ_percent::cpu.inst         0.002119                       # Average percentage of cache occupancy
system.l2.tags.occ_percent::cpu.data         0.591465                       # Average percentage of cache occupancy
system.l2.tags.occ_percent::total            0.960734                       # Average percentage of cache occupancy
system.l2.tags.occ_task_id_blocks::1024         16080                       # Occupied blocks per task id
system.l2.tags.age_task_id_blocks_1024::1            9                       # Occupied blocks per task id
system.l2.tags.age_task_id_blocks_1024::2           10                       # Occupied blocks per task id
system.l2.tags.age_task_id_blocks_1024::3           38                       # Occupied blocks per task id
system.l2.tags.age_task_id_blocks_1024::4        16023                       # Occupied blocks per task id
system.l2.tags.occ_task_id_percent::1024     0.981445                       # Percentage of cache occupancy per task id
system.l2.tags.tag_accesses                  17578364                       # Number of tag accesses
system.l2.tags.data_accesses                 17578364                       # Number of data accesses
system.l2.WritebackDirty_hits::writebacks       958266                       # number of WritebackDirty hits
system.l2.WritebackDirty_hits::total           958266                       # number of WritebackDirty hits
system.l2.WritebackClean_hits::writebacks           45                       # number of WritebackClean hits
system.l2.WritebackClean_hits::total               45                       # number of WritebackClean hits
system.l2.ReadExReq_hits::cpu.data             271010                       # number of ReadExReq hits
system.l2.ReadExReq_hits::total                271010                       # number of ReadExReq hits
system.l2.ReadCleanReq_hits::cpu.inst               1                       # number of ReadCleanReq hits
system.l2.ReadCleanReq_hits::total                  1                       # number of ReadCleanReq hits
system.l2.ReadSharedReq_hits::cpu.data        1137501                       # number of ReadSharedReq hits
system.l2.ReadSharedReq_hits::total           1137501                       # number of ReadSharedReq hits
system.l2.demand_hits::cpu.inst                     1                       # number of demand (read+write) hits
system.l2.demand_hits::cpu.data               1408511                       # number of demand (read+write) hits
system.l2.demand_hits::total                  1408512                       # number of demand (read+write) hits
system.l2.overall_hits::cpu.inst                    1                       # number of overall hits
system.l2.overall_hits::cpu.data              1408511                       # number of overall hits
system.l2.overall_hits::total                 1408512                       # number of overall hits
system.l2.ReadExReq_misses::cpu.data           317993                       # number of ReadExReq misses
system.l2.ReadExReq_misses::total              317993                       # number of ReadExReq misses
system.l2.ReadCleanReq_misses::cpu.inst          1000                       # number of ReadCleanReq misses
system.l2.ReadCleanReq_misses::total             1000                       # number of ReadCleanReq misses
system.l2.ReadSharedReq_misses::cpu.data       318075                       # number of ReadSharedReq misses
system.l2.ReadSharedReq_misses::total          318075                       # number of ReadSharedReq misses
system.l2.demand_misses::cpu.inst                1000                       # number of demand (read+write) misses
system.l2.demand_misses::cpu.data              636068                       # number of demand (read+write) misses
system.l2.demand_misses::total                 637068                       # number of demand (read+write) misses
system.l2.overall_misses::cpu.inst               1000                       # number of overall misses
system.l2.overall_misses::cpu.data             636068                       # number of overall misses
system.l2.overall_misses::total                637068                       # number of overall misses
system.l2.ReadExReq_miss_latency::cpu.data  27126136500                       # number of ReadExReq miss cycles
system.l2.ReadExReq_miss_latency::total   27126136500                       # number of ReadExReq miss cycles
system.l2.ReadCleanReq_miss_latency::cpu.inst     75519000                       # number of ReadCleanReq miss cycles
system.l2.ReadCleanReq_miss_latency::total     75519000                       # number of ReadCleanReq miss cycles
system.l2.ReadSharedReq_miss_latency::cpu.data  26087872000                       # number of ReadSharedReq miss cycles
system.l2.ReadSharedReq_miss_latency::total  26087872000                       # number of ReadSharedReq miss cycles
system.l2.demand_miss_latency::cpu.inst      75519000                       # number of demand (read+write) miss cycles
system.l2.demand_miss_latency::cpu.data   53214008500                       # number of demand (read+write) miss cycles
system.l2.demand_miss_latency::total      53289527500                       # number of demand (read+write) miss cycles
system.l2.overall_miss_latency::cpu.inst     75519000                       # number of overall miss cycles
system.l2.overall_miss_latency::cpu.data  53214008500                       # number of overall miss cycles
system.l2.overall_miss_latency::total     53289527500                       # number of overall miss cycles
system.l2.WritebackDirty_accesses::writebacks       958266                       # number of WritebackDirty accesses(hits+misses)
system.l2.WritebackDirty_accesses::total       958266                       # number of WritebackDirty accesses(hits+misses)
system.l2.WritebackClean_accesses::writebacks           45                       # number of WritebackClean accesses(hits+misses)
system.l2.WritebackClean_accesses::total           45                       # number of WritebackClean accesses(hits+misses)
system.l2.ReadExReq_accesses::cpu.data         589003                       # number of ReadExReq accesses(hits+misses)
system.l2.ReadExReq_accesses::total            589003                       # number of ReadExReq accesses(hits+misses)
system.l2.ReadCleanReq_accesses::cpu.inst         1001                       # number of ReadCleanReq accesses(hits+misses)
system.l2.ReadCleanReq_accesses::total           1001                       # number of ReadCleanReq accesses(hits+misses)
system.l2.ReadSharedReq_accesses::cpu.data      1455576                       # number of ReadSharedReq accesses(hits+misses)
system.l2.ReadSharedReq_accesses::total       1455576                       # number of ReadSharedReq accesses(hits+misses)
system.l2.demand_accesses::cpu.inst              1001                       # number of demand (read+write) accesses
system.l2.demand_accesses::cpu.data           2044579                       # number of demand (read+write) accesses
system.l2.demand_accesses::total              2045580                       # number of demand (read+write) accesses
system.l2.overall_accesses::cpu.inst             1001                       # number of overall (read+write) accesses
system.l2.overall_accesses::cpu.data          2044579                       # number of overall (read+write) accesses
system.l2.overall_accesses::total             2045580                       # number of overall (read+write) accesses
system.l2.ReadExReq_miss_rate::cpu.data      0.539883                       # miss rate for ReadExReq accesses
system.l2.ReadExReq_miss_rate::total         0.539883                       # miss rate for ReadExReq accesses
system.l2.ReadCleanReq_miss_rate::cpu.inst     0.999001                       # miss rate for ReadCleanReq accesses
system.l2.ReadCleanReq_miss_rate::total      0.999001                       # miss rate for ReadCleanReq accesses
system.l2.ReadSharedReq_miss_rate::cpu.data     0.218522                       # miss rate for ReadSharedReq accesses
system.l2.ReadSharedReq_miss_rate::total     0.218522                       # miss rate for ReadSharedReq accesses
system.l2.demand_miss_rate::cpu.inst         0.999001                       # miss rate for demand accesses
system.l2.demand_miss_rate::cpu.data         0.311100                       # miss rate for demand accesses
system.l2.demand_miss_rate::total            0.311436                       # miss rate for demand accesses
system.l2.overall_miss_rate::cpu.inst        0.999001                       # miss rate for overall accesses
system.l2.overall_miss_rate::cpu.data        0.311100                       # miss rate for overall accesses
system.l2.overall_miss_rate::total           0.311436                       # miss rate for overall accesses
system.l2.ReadExReq_avg_miss_latency::cpu.data 85304.193803                       # average ReadExReq miss latency
system.l2.ReadExReq_avg_miss_latency::total 85304.193803                       # average ReadExReq miss latency
system.l2.ReadCleanReq_avg_miss_latency::cpu.inst        75519                       # average ReadCleanReq miss latency
system.l2.ReadCleanReq_avg_miss_latency::total        75519                       # average ReadCleanReq miss latency
system.l2.ReadSharedReq_avg_miss_latency::cpu.data 82017.989468                       # average ReadSharedReq miss latency
system.l2.ReadSharedReq_avg_miss_latency::total 82017.989468                       # average ReadSharedReq miss latency
system.l2.demand_avg_miss_latency::cpu.inst        75519                       # average overall miss latency
system.l2.demand_avg_miss_latency::cpu.data 83660.879812                       # average overall miss latency
system.l2.demand_avg_miss_latency::total 83648.099575                       # average overall miss latency
system.l2.overall_avg_miss_latency::cpu.inst        75519                       # average overall miss latency
system.l2.overall_avg_miss_latency::cpu.data 83660.879812                       # average overall miss latency
system.l2.overall_avg_miss_latency::total 83648.099575                       # average overall miss latency
system.l2.blocked_cycles::no_mshrs                  0                       # number of cycles access was blocked
system.l2.blocked_cycles::no_targets                0                       # number of cycles access was blocked
system.l2.blocked::no_mshrs                         0                       # number of cycles access was blocked
system.l2.blocked::no_targets                       0                       # number of cycles access was blocked
system.l2.avg_blocked_cycles::no_mshrs            nan                       # average number of cycles each access was blocked
system.l2.avg_blocked_cycles::no_targets          nan                       # average number of cycles each access was blocked
system.l2.fast_writes                               0                       # number of fast writes performed
system.l2.cache_copies                              0                       # number of cache copies performed
system.l2.writebacks::writebacks               383593                       # number of writebacks
system.l2.writebacks::total                    383593                       # number of writebacks
system.l2.CleanEvict_mshr_misses::writebacks         1438                       # number of CleanEvict MSHR misses
system.l2.CleanEvict_mshr_misses::total          1438                       # number of CleanEvict MSHR misses
system.l2.ReadExReq_mshr_misses::cpu.data       317993                       # number of ReadExReq MSHR misses
system.l2.ReadExReq_mshr_misses::total         317993                       # number of ReadExReq MSHR misses
system.l2.ReadCleanReq_mshr_misses::cpu.inst         1000                       # number of ReadCleanReq MSHR misses
system.l2.ReadCleanReq_mshr_misses::total         1000                       # number of ReadCleanReq MSHR misses
system.l2.ReadSharedReq_mshr_misses::cpu.data       318075                       # number of ReadSharedReq MSHR misses
system.l2.ReadSharedReq_mshr_misses::total       318075                       # number of ReadSharedReq MSHR misses
system.l2.demand_mshr_misses::cpu.inst           1000                       # number of demand (read+write) MSHR misses
system.l2.demand_mshr_misses::cpu.data         636068                       # number of demand (read+write) MSHR misses
system.l2.demand_mshr_misses::total            637068                       # number of demand (read+write) MSHR misses
system.l2.overall_mshr_misses::cpu.inst          1000                       # number of overall MSHR misses
system.l2.overall_mshr_misses::cpu.data        636068                       # number of overall MSHR misses
system.l2.overall_mshr_misses::total           637068                       # number of overall MSHR misses
system.l2.ReadExReq_mshr_miss_latency::cpu.data  23946206500                       # number of ReadExReq MSHR miss cycles
system.l2.ReadExReq_mshr_miss_latency::total  23946206500                       # number of ReadExReq MSHR miss cycles
system.l2.ReadCleanReq_mshr_miss_latency::cpu.inst     65519000                       # number of ReadCleanReq MSHR miss cycles
system.l2.ReadCleanReq_mshr_miss_latency::total     65519000                       # number of ReadCleanReq MSHR miss cycles
system.l2.ReadSharedReq_mshr_miss_latency::cpu.data  22907122000                       # number of ReadSharedReq MSHR miss cycles
system.l2.ReadSharedReq_mshr_miss_latency::total  22907122000                       # number of ReadSharedReq MSHR miss cycles
system.l2.demand_mshr_miss_latency::cpu.inst     65519000                       # number of demand (read+write) MSHR miss cycles
system.l2.demand_mshr_miss_latency::cpu.data  46853328500                       # number of demand (read+write) MSHR miss cycles
system.l2.demand_mshr_miss_latency::total  46918847500                       # number of demand (read+write) MSHR miss cycles
system.l2.overall_mshr_miss_latency::cpu.inst     65519000                       # number of overall MSHR miss cycles
system.l2.overall_mshr_miss_latency::cpu.data  46853328500                       # number of overall MSHR miss cycles
system.l2.overall_mshr_miss_latency::total  46918847500                       # number of overall MSHR miss cycles
system.l2.CleanEvict_mshr_miss_rate::writebacks          inf                       # mshr miss rate for CleanEvict accesses
system.l2.CleanEvict_mshr_miss_rate::total          inf                       # mshr miss rate for CleanEvict accesses
system.l2.ReadExReq_mshr_miss_rate::cpu.data     0.539883                       # mshr miss rate for ReadExReq accesses
system.l2.ReadExReq_mshr_miss_rate::total     0.539883                       # mshr miss rate for ReadExReq accesses
system.l2.ReadCleanReq_mshr_miss_rate::cpu.inst     0.999001                       # mshr miss rate for ReadCleanReq accesses
system.l2.ReadCleanReq_mshr_miss_rate::total     0.999001                       # mshr miss rate for ReadCleanReq accesses
system.l2.ReadSharedReq_mshr_miss_rate::cpu.data     0.218522                       # mshr miss rate for ReadSharedReq accesses
system.l2.ReadSharedReq_mshr_miss_rate::total     0.218522                       # mshr miss rate for ReadSharedReq accesses
system.l2.demand_mshr_miss_rate::cpu.inst     0.999001                       # mshr miss rate for demand accesses
system.l2.demand_mshr_miss_rate::cpu.data     0.311100                       # mshr miss rate for demand accesses
system.l2.demand_mshr_miss_rate::total       0.311436                       # mshr miss rate for demand accesses
system.l2.overall_mshr_miss_rate::cpu.inst     0.999001                       # mshr miss rate for overall accesses
system.l2.overall_mshr_miss_rate::cpu.data     0.311100                       # mshr miss rate for overall accesses
system.l2.overall_mshr_miss_rate::total      0.311436                       # mshr miss rate for overall accesses
system.l2.ReadExReq_avg_mshr_miss_latency::cpu.data 75304.193803                       # average ReadExReq mshr miss latency
system.l2.ReadExReq_avg_mshr_miss_latency::total 75304.193803                       # average ReadExReq mshr miss latency
system.l2.ReadCleanReq_avg_mshr_miss_latency::cpu.inst        65519                       # average ReadCleanReq mshr miss latency
system.l2.ReadCleanReq_avg_mshr_miss_latency::total        65519                       # average ReadCleanReq mshr miss latency
system.l2.ReadSharedReq_avg_mshr_miss_latency::cpu.data 72017.989468                       # average ReadSharedReq mshr miss latency
system.l2.ReadSharedReq_avg_mshr_miss_latency::total 72017.989468                       # average ReadSharedReq mshr miss latency
system.l2.demand_avg_mshr_miss_latency::cpu.inst        65519                       # average overall mshr miss latency
system.l2.demand_avg_mshr_miss_latency::cpu.data 73660.879812                       # average overall mshr miss latency
system.l2.demand_avg_mshr_miss_latency::total 73648.099575                       # average overall mshr miss latency
system.l2.overall_avg_mshr_miss_latency::cpu.inst        65519                       # average overall mshr miss latency
system.l2.overall_avg_mshr_miss_latency::cpu.data 73660.879812                       # average overall mshr miss latency
system.l2.overall_avg_mshr_miss_latency::total 73648.099575                       # average overall mshr miss latency
system.l2.no_allocate_misses                        0                       # Number of misses that were no-allocate
system.membus.trans_dist::ReadResp             319075                       # Transaction distribution
system.membus.trans_dist::WritebackDirty       383593                       # Transaction distribution
system.membus.trans_dist::CleanEvict           236173                       # Transaction distribution
system.membus.trans_dist::ReadExReq            317993                       # Transaction distribution
system.membus.trans_dist::ReadExResp           317993                       # Transaction distribution
system.membus.trans_dist::ReadSharedReq        319075                       # Transaction distribution
system.membus.pkt_count_system.l2.mem_side::system.mem_ctrls.port      1893902                       # Packet count per connected master and slave (bytes)
system.membus.pkt_count_system.l2.mem_side::total      1893902                       # Packet count per connected master and slave (bytes)
system.membus.pkt_count::total                1893902                       # Packet count per connected master and slave (bytes)
system.membus.pkt_size_system.l2.mem_side::system.mem_ctrls.port     65322304                       # Cumulative packet size per connected master and slave (bytes)
system.membus.pkt_size_system.l2.mem_side::total     65322304                       # Cumulative packet size per connected master and slave (bytes)
system.membus.pkt_size::total                65322304                       # Cumulative packet size per connected master and slave (bytes)
system.membus.snoops                                0                       # Total snoops (count)
system.membus.snoop_fanout::samples           1256834                       # Request fanout histogram
system.membus.snoop_fanout::mean                    0                       # Request fanout histogram
system.membus.snoop_fanout::stdev                   0                       # Request fanout histogram
system.membus.snoop_fanout::underflows              0      0.00%      0.00% # Request fanout histogram
system.membus.snoop_fanout::0                 1256834    100.00%    100.00% # Request fanout histogram
system.membus.snoop_fanout::1                       0      0.00%    100.00% # Request fanout histogram
system.membus.snoop_fanout::overflows               0      0.00%    100.00% # Request fanout histogram
system.membus.snoop_fanout::min_value               0                       # Request fanout histogram
system.membus.snoop_fanout::max_value               0                       # Request fanout histogram
system.membus.snoop_fanout::total             1256834                       # Request fanout histogram
system.membus.reqLayer2.occupancy          2799191000                       # Layer occupancy (ticks)
system.membus.reqLayer2.utilization               0.3                       # Layer utilization (%)
system.membus.respLayer1.occupancy         3448425000                       # Layer occupancy (ticks)
system.membus.respLayer1.utilization              0.3                       # Layer utilization (%)
system.tol2bus.snoop_filter.tot_requests      4088156                       # Total number of requests made to the snoop filter.
system.tol2bus.snoop_filter.hit_single_requests      2042576                       # Number of requests hitting in the snoop filter with a single holder of the requested data.
system.tol2bus.snoop_filter.hit_multi_requests            1                       # Number of requests hitting in the snoop filter with multiple (>1) holders of the requested data.
system.tol2bus.snoop_filter.tot_snoops           2333                       # Total number of snoops made to the snoop filter.
system.tol2bus.snoop_filter.hit_single_snoops         2333                       # Number of snoops hitting in the snoop filter with a single holder of the requested data.
system.tol2bus.snoop_filter.hit_multi_snoops            0                       # Number of snoops hitting in the snoop filter with multiple (>1) holders of the requested data.
system.tol2bus.trans_dist::ReadResp           1456577                       # Transaction distribution
system.tol2bus.trans_dist::WritebackDirty      1341859                       # Transaction distribution
system.tol2bus.trans_dist::WritebackClean           45                       # Transaction distribution
system.tol2bus.trans_dist::CleanEvict         1321332                       # Transaction distribution
system.tol2bus.trans_dist::ReadExReq           589003                       # Transaction distribution
system.tol2bus.trans_dist::ReadExResp          589003                       # Transaction distribution
system.tol2bus.trans_dist::ReadCleanReq          1001                       # Transaction distribution
system.tol2bus.trans_dist::ReadSharedReq      1455576                       # Transaction distribution
system.tol2bus.pkt_count_system.cpu.icache.mem_side::system.l2.cpu_side         2047                       # Packet count per connected master and slave (bytes)
system.tol2bus.pkt_count_system.cpu.dcache.mem_side::system.l2.cpu_side      6131688                       # Packet count per connected master and slave (bytes)
system.tol2bus.pkt_count::total               6133735                       # Packet count per connected master and slave (bytes)
system.tol2bus.pkt_size_system.cpu.icache.mem_side::system.l2.cpu_side        66944                       # Cumulative packet size per connected master and slave (bytes)
system.tol2bus.pkt_size_system.cpu.dcache.mem_side::system.l2.cpu_side    192182080                       # Cumulative packet size per connected master and slave (bytes)
system.tol2bus.pkt_size::total              192249024                       # Cumulative packet size per connected master and slave (bytes)
system.tol2bus.snoops                          620661                       # Total snoops (count)
system.tol2bus.snoop_fanout::samples          2666241                       # Request fanout histogram
system.tol2bus.snoop_fanout::mean            0.000875                       # Request fanout histogram
system.tol2bus.snoop_fanout::stdev           0.029574                       # Request fanout histogram
system.tol2bus.snoop_fanout::underflows             0      0.00%      0.00% # Request fanout histogram
system.tol2bus.snoop_fanout::0                2663907     99.91%     99.91% # Request fanout histogram
system.tol2bus.snoop_fanout::1                   2334      0.09%    100.00% # Request fanout histogram
system.tol2bus.snoop_fanout::2                      0      0.00%    100.00% # Request fanout histogram
system.tol2bus.snoop_fanout::3                      0      0.00%    100.00% # Request fanout histogram
system.tol2bus.snoop_fanout::4                      0      0.00%    100.00% # Request fanout histogram
system.tol2bus.snoop_fanout::overflows              0      0.00%    100.00% # Request fanout histogram
system.tol2bus.snoop_fanout::min_value              0                       # Request fanout histogram
system.tol2bus.snoop_fanout::max_value              1                       # Request fanout histogram
system.tol2bus.snoop_fanout::total            2666241                       # Request fanout histogram
system.tol2bus.reqLayer0.occupancy         3002389000                       # Layer occupancy (ticks)
system.tol2bus.reqLayer0.utilization              0.3                       # Layer utilization (%)
system.tol2bus.respLayer0.occupancy           1501500                       # Layer occupancy (ticks)
system.tol2bus.respLayer0.utilization             0.0                       # Layer utilization (%)
system.tol2bus.respLayer1.occupancy        3066868500                       # Layer occupancy (ticks)
system.tol2bus.respLayer1.utilization             0.3                       # Layer utilization (%)

---------- End Simulation Statistics   ----------
