
---------- Begin Simulation Statistics ----------
sim_seconds                                  1.071975                       # Number of seconds simulated
sim_ticks                                1071974643500                       # Number of ticks simulated
final_tick                               1071974643500                       # Number of ticks from beginning of simulation (restored from checkpoints and never reset)
sim_freq                                 1000000000000                       # Frequency of simulated ticks
host_inst_rate                                  37768                       # Simulator instruction rate (inst/s)
host_op_rate                                    55176                       # Simulator op (including micro ops) rate (op/s)
host_tick_rate                               80973726                       # Simulator tick rate (ticks/s)
host_mem_usage                                 828672                       # Number of bytes of host memory used
host_seconds                                 13238.55                       # Real time elapsed on the host
sim_insts                                   500000001                       # Number of instructions simulated
sim_ops                                     730450447                       # Number of ops (including micro ops) simulated
system.voltage_domain.voltage                       1                       # Voltage in Volts
system.clk_domain.clock                          1000                       # Clock period in ticks
system.mem_ctrls.bytes_read::cpu.inst           63552                       # Number of bytes read from this memory
system.mem_ctrls.bytes_read::cpu.data        48389312                       # Number of bytes read from this memory
system.mem_ctrls.bytes_read::total           48452864                       # Number of bytes read from this memory
system.mem_ctrls.bytes_inst_read::cpu.inst        63552                       # Number of instructions bytes read from this memory
system.mem_ctrls.bytes_inst_read::total         63552                       # Number of instructions bytes read from this memory
system.mem_ctrls.bytes_written::writebacks     25672064                       # Number of bytes written to this memory
system.mem_ctrls.bytes_written::total        25672064                       # Number of bytes written to this memory
system.mem_ctrls.num_reads::cpu.inst              993                       # Number of read requests responded to by this memory
system.mem_ctrls.num_reads::cpu.data           756083                       # Number of read requests responded to by this memory
system.mem_ctrls.num_reads::total              757076                       # Number of read requests responded to by this memory
system.mem_ctrls.num_writes::writebacks        401126                       # Number of write requests responded to by this memory
system.mem_ctrls.num_writes::total             401126                       # Number of write requests responded to by this memory
system.mem_ctrls.bw_read::cpu.inst              59285                       # Total read bandwidth from this memory (bytes/s)
system.mem_ctrls.bw_read::cpu.data           45140351                       # Total read bandwidth from this memory (bytes/s)
system.mem_ctrls.bw_read::total              45199636                       # Total read bandwidth from this memory (bytes/s)
system.mem_ctrls.bw_inst_read::cpu.inst         59285                       # Instruction read bandwidth from this memory (bytes/s)
system.mem_ctrls.bw_inst_read::total            59285                       # Instruction read bandwidth from this memory (bytes/s)
system.mem_ctrls.bw_write::writebacks        23948387                       # Write bandwidth from this memory (bytes/s)
system.mem_ctrls.bw_write::total             23948387                       # Write bandwidth from this memory (bytes/s)
system.mem_ctrls.bw_total::writebacks        23948387                       # Total bandwidth to/from this memory (bytes/s)
system.mem_ctrls.bw_total::cpu.inst             59285                       # Total bandwidth to/from this memory (bytes/s)
system.mem_ctrls.bw_total::cpu.data          45140351                       # Total bandwidth to/from this memory (bytes/s)
system.mem_ctrls.bw_total::total             69148024                       # Total bandwidth to/from this memory (bytes/s)
system.mem_ctrls.readReqs                      757076                       # Number of read requests accepted
system.mem_ctrls.writeReqs                     401126                       # Number of write requests accepted
system.mem_ctrls.readBursts                    757076                       # Number of DRAM read bursts, including those serviced by the write queue
system.mem_ctrls.writeBursts                   401126                       # Number of DRAM write bursts, including those merged in the write queue
system.mem_ctrls.bytesReadDRAM               48264384                       # Total number of bytes read from DRAM
system.mem_ctrls.bytesReadWrQ                  188480                       # Total number of bytes read from write queue
system.mem_ctrls.bytesWritten                25656768                       # Total number of bytes written to DRAM
system.mem_ctrls.bytesReadSys                48452864                       # Total read bytes from the system interface side
system.mem_ctrls.bytesWrittenSys             25672064                       # Total written bytes from the system interface side
system.mem_ctrls.servicedByWrQ                   2945                       # Number of DRAM read bursts serviced by the write queue
system.mem_ctrls.mergedWrBursts                   209                       # Number of DRAM write bursts merged with an existing one
system.mem_ctrls.neitherReadNorWriteReqs       338658                       # Number of requests that are neither read nor write
system.mem_ctrls.perBankRdBursts::0             49109                       # Per bank write bursts
system.mem_ctrls.perBankRdBursts::1             47601                       # Per bank write bursts
system.mem_ctrls.perBankRdBursts::2             48396                       # Per bank write bursts
system.mem_ctrls.perBankRdBursts::3             45155                       # Per bank write bursts
system.mem_ctrls.perBankRdBursts::4             45017                       # Per bank write bursts
system.mem_ctrls.perBankRdBursts::5             44211                       # Per bank write bursts
system.mem_ctrls.perBankRdBursts::6             46263                       # Per bank write bursts
system.mem_ctrls.perBankRdBursts::7             45466                       # Per bank write bursts
system.mem_ctrls.perBankRdBursts::8             43196                       # Per bank write bursts
system.mem_ctrls.perBankRdBursts::9             43506                       # Per bank write bursts
system.mem_ctrls.perBankRdBursts::10            47188                       # Per bank write bursts
system.mem_ctrls.perBankRdBursts::11            47635                       # Per bank write bursts
system.mem_ctrls.perBankRdBursts::12            49536                       # Per bank write bursts
system.mem_ctrls.perBankRdBursts::13            49565                       # Per bank write bursts
system.mem_ctrls.perBankRdBursts::14            50007                       # Per bank write bursts
system.mem_ctrls.perBankRdBursts::15            52280                       # Per bank write bursts
system.mem_ctrls.perBankWrBursts::0             25968                       # Per bank write bursts
system.mem_ctrls.perBankWrBursts::1             25440                       # Per bank write bursts
system.mem_ctrls.perBankWrBursts::2             26894                       # Per bank write bursts
system.mem_ctrls.perBankWrBursts::3             24442                       # Per bank write bursts
system.mem_ctrls.perBankWrBursts::4             23988                       # Per bank write bursts
system.mem_ctrls.perBankWrBursts::5             23173                       # Per bank write bursts
system.mem_ctrls.perBankWrBursts::6             24668                       # Per bank write bursts
system.mem_ctrls.perBankWrBursts::7             24531                       # Per bank write bursts
system.mem_ctrls.perBankWrBursts::8             23505                       # Per bank write bursts
system.mem_ctrls.perBankWrBursts::9             23599                       # Per bank write bursts
system.mem_ctrls.perBankWrBursts::10            24935                       # Per bank write bursts
system.mem_ctrls.perBankWrBursts::11            24717                       # Per bank write bursts
system.mem_ctrls.perBankWrBursts::12            25290                       # Per bank write bursts
system.mem_ctrls.perBankWrBursts::13            25706                       # Per bank write bursts
system.mem_ctrls.perBankWrBursts::14            26125                       # Per bank write bursts
system.mem_ctrls.perBankWrBursts::15            27906                       # Per bank write bursts
system.mem_ctrls.numRdRetry                         0                       # Number of times read queue was full causing retry
system.mem_ctrls.numWrRetry                         0                       # Number of times write queue was full causing retry
system.mem_ctrls.totGap                  1071941888500                       # Total gap between requests
system.mem_ctrls.readPktSize::0                     0                       # Read request sizes (log2)
system.mem_ctrls.readPktSize::1                     0                       # Read request sizes (log2)
system.mem_ctrls.readPktSize::2                     0                       # Read request sizes (log2)
system.mem_ctrls.readPktSize::3                     0                       # Read request sizes (log2)
system.mem_ctrls.readPktSize::4                     0                       # Read request sizes (log2)
system.mem_ctrls.readPktSize::5                     0                       # Read request sizes (log2)
system.mem_ctrls.readPktSize::6                757076                       # Read request sizes (log2)
system.mem_ctrls.writePktSize::0                    0                       # Write request sizes (log2)
system.mem_ctrls.writePktSize::1                    0                       # Write request sizes (log2)
system.mem_ctrls.writePktSize::2                    0                       # Write request sizes (log2)
system.mem_ctrls.writePktSize::3                    0                       # Write request sizes (log2)
system.mem_ctrls.writePktSize::4                    0                       # Write request sizes (log2)
system.mem_ctrls.writePktSize::5                    0                       # Write request sizes (log2)
system.mem_ctrls.writePktSize::6               401126                       # Write request sizes (log2)
system.mem_ctrls.rdQLenPdf::0                  745523                       # What read queue length does an incoming req see
system.mem_ctrls.rdQLenPdf::1                    8083                       # What read queue length does an incoming req see
system.mem_ctrls.rdQLenPdf::2                     411                       # What read queue length does an incoming req see
system.mem_ctrls.rdQLenPdf::3                     114                       # What read queue length does an incoming req see
system.mem_ctrls.rdQLenPdf::4                       0                       # What read queue length does an incoming req see
system.mem_ctrls.rdQLenPdf::5                       0                       # What read queue length does an incoming req see
system.mem_ctrls.rdQLenPdf::6                       0                       # What read queue length does an incoming req see
system.mem_ctrls.rdQLenPdf::7                       0                       # What read queue length does an incoming req see
system.mem_ctrls.rdQLenPdf::8                       0                       # What read queue length does an incoming req see
system.mem_ctrls.rdQLenPdf::9                       0                       # What read queue length does an incoming req see
system.mem_ctrls.rdQLenPdf::10                      0                       # What read queue length does an incoming req see
system.mem_ctrls.rdQLenPdf::11                      0                       # What read queue length does an incoming req see
system.mem_ctrls.rdQLenPdf::12                      0                       # What read queue length does an incoming req see
system.mem_ctrls.rdQLenPdf::13                      0                       # What read queue length does an incoming req see
system.mem_ctrls.rdQLenPdf::14                      0                       # What read queue length does an incoming req see
system.mem_ctrls.rdQLenPdf::15                      0                       # What read queue length does an incoming req see
system.mem_ctrls.rdQLenPdf::16                      0                       # What read queue length does an incoming req see
system.mem_ctrls.rdQLenPdf::17                      0                       # What read queue length does an incoming req see
system.mem_ctrls.rdQLenPdf::18                      0                       # What read queue length does an incoming req see
system.mem_ctrls.rdQLenPdf::19                      0                       # What read queue length does an incoming req see
system.mem_ctrls.rdQLenPdf::20                      0                       # What read queue length does an incoming req see
system.mem_ctrls.rdQLenPdf::21                      0                       # What read queue length does an incoming req see
system.mem_ctrls.rdQLenPdf::22                      0                       # What read queue length does an incoming req see
system.mem_ctrls.rdQLenPdf::23                      0                       # What read queue length does an incoming req see
system.mem_ctrls.rdQLenPdf::24                      0                       # What read queue length does an incoming req see
system.mem_ctrls.rdQLenPdf::25                      0                       # What read queue length does an incoming req see
system.mem_ctrls.rdQLenPdf::26                      0                       # What read queue length does an incoming req see
system.mem_ctrls.rdQLenPdf::27                      0                       # What read queue length does an incoming req see
system.mem_ctrls.rdQLenPdf::28                      0                       # What read queue length does an incoming req see
system.mem_ctrls.rdQLenPdf::29                      0                       # What read queue length does an incoming req see
system.mem_ctrls.rdQLenPdf::30                      0                       # What read queue length does an incoming req see
system.mem_ctrls.rdQLenPdf::31                      0                       # What read queue length does an incoming req see
system.mem_ctrls.wrQLenPdf::0                       1                       # What write queue length does an incoming req see
system.mem_ctrls.wrQLenPdf::1                       1                       # What write queue length does an incoming req see
system.mem_ctrls.wrQLenPdf::2                       1                       # What write queue length does an incoming req see
system.mem_ctrls.wrQLenPdf::3                       1                       # What write queue length does an incoming req see
system.mem_ctrls.wrQLenPdf::4                       1                       # What write queue length does an incoming req see
system.mem_ctrls.wrQLenPdf::5                       1                       # What write queue length does an incoming req see
system.mem_ctrls.wrQLenPdf::6                       1                       # What write queue length does an incoming req see
system.mem_ctrls.wrQLenPdf::7                       1                       # What write queue length does an incoming req see
system.mem_ctrls.wrQLenPdf::8                       1                       # What write queue length does an incoming req see
system.mem_ctrls.wrQLenPdf::9                       1                       # What write queue length does an incoming req see
system.mem_ctrls.wrQLenPdf::10                      1                       # What write queue length does an incoming req see
system.mem_ctrls.wrQLenPdf::11                      1                       # What write queue length does an incoming req see
system.mem_ctrls.wrQLenPdf::12                      1                       # What write queue length does an incoming req see
system.mem_ctrls.wrQLenPdf::13                      1                       # What write queue length does an incoming req see
system.mem_ctrls.wrQLenPdf::14                      1                       # What write queue length does an incoming req see
system.mem_ctrls.wrQLenPdf::15                  15501                       # What write queue length does an incoming req see
system.mem_ctrls.wrQLenPdf::16                  16335                       # What write queue length does an incoming req see
system.mem_ctrls.wrQLenPdf::17                  23086                       # What write queue length does an incoming req see
system.mem_ctrls.wrQLenPdf::18                  23093                       # What write queue length does an incoming req see
system.mem_ctrls.wrQLenPdf::19                  23064                       # What write queue length does an incoming req see
system.mem_ctrls.wrQLenPdf::20                  23059                       # What write queue length does an incoming req see
system.mem_ctrls.wrQLenPdf::21                  23059                       # What write queue length does an incoming req see
system.mem_ctrls.wrQLenPdf::22                  23057                       # What write queue length does an incoming req see
system.mem_ctrls.wrQLenPdf::23                  23057                       # What write queue length does an incoming req see
system.mem_ctrls.wrQLenPdf::24                  23056                       # What write queue length does an incoming req see
system.mem_ctrls.wrQLenPdf::25                  23060                       # What write queue length does an incoming req see
system.mem_ctrls.wrQLenPdf::26                  23065                       # What write queue length does an incoming req see
system.mem_ctrls.wrQLenPdf::27                  23080                       # What write queue length does an incoming req see
system.mem_ctrls.wrQLenPdf::28                  23103                       # What write queue length does an incoming req see
system.mem_ctrls.wrQLenPdf::29                  23060                       # What write queue length does an incoming req see
system.mem_ctrls.wrQLenPdf::30                  23056                       # What write queue length does an incoming req see
system.mem_ctrls.wrQLenPdf::31                  23054                       # What write queue length does an incoming req see
system.mem_ctrls.wrQLenPdf::32                  23054                       # What write queue length does an incoming req see
system.mem_ctrls.wrQLenPdf::33                      3                       # What write queue length does an incoming req see
system.mem_ctrls.wrQLenPdf::34                      0                       # What write queue length does an incoming req see
system.mem_ctrls.wrQLenPdf::35                      0                       # What write queue length does an incoming req see
system.mem_ctrls.wrQLenPdf::36                      0                       # What write queue length does an incoming req see
system.mem_ctrls.wrQLenPdf::37                      0                       # What write queue length does an incoming req see
system.mem_ctrls.wrQLenPdf::38                      0                       # What write queue length does an incoming req see
system.mem_ctrls.wrQLenPdf::39                      0                       # What write queue length does an incoming req see
system.mem_ctrls.wrQLenPdf::40                      0                       # What write queue length does an incoming req see
system.mem_ctrls.wrQLenPdf::41                      0                       # What write queue length does an incoming req see
system.mem_ctrls.wrQLenPdf::42                      0                       # What write queue length does an incoming req see
system.mem_ctrls.wrQLenPdf::43                      0                       # What write queue length does an incoming req see
system.mem_ctrls.wrQLenPdf::44                      0                       # What write queue length does an incoming req see
system.mem_ctrls.wrQLenPdf::45                      0                       # What write queue length does an incoming req see
system.mem_ctrls.wrQLenPdf::46                      0                       # What write queue length does an incoming req see
system.mem_ctrls.wrQLenPdf::47                      0                       # What write queue length does an incoming req see
system.mem_ctrls.wrQLenPdf::48                      0                       # What write queue length does an incoming req see
system.mem_ctrls.wrQLenPdf::49                      0                       # What write queue length does an incoming req see
system.mem_ctrls.wrQLenPdf::50                      0                       # What write queue length does an incoming req see
system.mem_ctrls.wrQLenPdf::51                      0                       # What write queue length does an incoming req see
system.mem_ctrls.wrQLenPdf::52                      0                       # What write queue length does an incoming req see
system.mem_ctrls.wrQLenPdf::53                      0                       # What write queue length does an incoming req see
system.mem_ctrls.wrQLenPdf::54                      0                       # What write queue length does an incoming req see
system.mem_ctrls.wrQLenPdf::55                      0                       # What write queue length does an incoming req see
system.mem_ctrls.wrQLenPdf::56                      0                       # What write queue length does an incoming req see
system.mem_ctrls.wrQLenPdf::57                      0                       # What write queue length does an incoming req see
system.mem_ctrls.wrQLenPdf::58                      0                       # What write queue length does an incoming req see
system.mem_ctrls.wrQLenPdf::59                      0                       # What write queue length does an incoming req see
system.mem_ctrls.wrQLenPdf::60                      0                       # What write queue length does an incoming req see
system.mem_ctrls.wrQLenPdf::61                      0                       # What write queue length does an incoming req see
system.mem_ctrls.wrQLenPdf::62                      0                       # What write queue length does an incoming req see
system.mem_ctrls.wrQLenPdf::63                      0                       # What write queue length does an incoming req see
system.mem_ctrls.bytesPerActivate::samples       586557                       # Bytes accessed per row activation
system.mem_ctrls.bytesPerActivate::mean    126.025522                       # Bytes accessed per row activation
system.mem_ctrls.bytesPerActivate::gmean    92.343685                       # Bytes accessed per row activation
system.mem_ctrls.bytesPerActivate::stdev   155.745585                       # Bytes accessed per row activation
system.mem_ctrls.bytesPerActivate::0-127       405522     69.14%     69.14% # Bytes accessed per row activation
system.mem_ctrls.bytesPerActivate::128-255       117898     20.10%     89.24% # Bytes accessed per row activation
system.mem_ctrls.bytesPerActivate::256-383        26501      4.52%     93.75% # Bytes accessed per row activation
system.mem_ctrls.bytesPerActivate::384-511         9845      1.68%     95.43% # Bytes accessed per row activation
system.mem_ctrls.bytesPerActivate::512-639        12970      2.21%     97.64% # Bytes accessed per row activation
system.mem_ctrls.bytesPerActivate::640-767         2384      0.41%     98.05% # Bytes accessed per row activation
system.mem_ctrls.bytesPerActivate::768-895         1711      0.29%     98.34% # Bytes accessed per row activation
system.mem_ctrls.bytesPerActivate::896-1023         1428      0.24%     98.59% # Bytes accessed per row activation
system.mem_ctrls.bytesPerActivate::1024-1151         8298      1.41%    100.00% # Bytes accessed per row activation
system.mem_ctrls.bytesPerActivate::total       586557                       # Bytes accessed per row activation
system.mem_ctrls.rdPerTurnAround::samples        23054                       # Reads before turning the bus around for writes
system.mem_ctrls.rdPerTurnAround::mean      32.698838                       # Reads before turning the bus around for writes
system.mem_ctrls.rdPerTurnAround::gmean     24.848350                       # Reads before turning the bus around for writes
system.mem_ctrls.rdPerTurnAround::stdev    134.238787                       # Reads before turning the bus around for writes
system.mem_ctrls.rdPerTurnAround::0-511         23013     99.82%     99.82% # Reads before turning the bus around for writes
system.mem_ctrls.rdPerTurnAround::512-1023           31      0.13%     99.96% # Reads before turning the bus around for writes
system.mem_ctrls.rdPerTurnAround::1024-1535            3      0.01%     99.97% # Reads before turning the bus around for writes
system.mem_ctrls.rdPerTurnAround::2560-3071            1      0.00%     99.97% # Reads before turning the bus around for writes
system.mem_ctrls.rdPerTurnAround::5120-5631            1      0.00%     99.98% # Reads before turning the bus around for writes
system.mem_ctrls.rdPerTurnAround::5632-6143            1      0.00%     99.98% # Reads before turning the bus around for writes
system.mem_ctrls.rdPerTurnAround::7168-7679            1      0.00%     99.99% # Reads before turning the bus around for writes
system.mem_ctrls.rdPerTurnAround::7680-8191            1      0.00%     99.99% # Reads before turning the bus around for writes
system.mem_ctrls.rdPerTurnAround::8704-9215            1      0.00%    100.00% # Reads before turning the bus around for writes
system.mem_ctrls.rdPerTurnAround::10752-11263            1      0.00%    100.00% # Reads before turning the bus around for writes
system.mem_ctrls.rdPerTurnAround::total         23054                       # Reads before turning the bus around for writes
system.mem_ctrls.wrPerTurnAround::samples        23054                       # Writes before turning the bus around for reads
system.mem_ctrls.wrPerTurnAround::mean      17.389043                       # Writes before turning the bus around for reads
system.mem_ctrls.wrPerTurnAround::gmean     17.364272                       # Writes before turning the bus around for reads
system.mem_ctrls.wrPerTurnAround::stdev      0.914932                       # Writes before turning the bus around for reads
system.mem_ctrls.wrPerTurnAround::16             6720     29.15%     29.15% # Writes before turning the bus around for reads
system.mem_ctrls.wrPerTurnAround::17              832      3.61%     32.76% # Writes before turning the bus around for reads
system.mem_ctrls.wrPerTurnAround::18            15317     66.44%     99.20% # Writes before turning the bus around for reads
system.mem_ctrls.wrPerTurnAround::19              183      0.79%     99.99% # Writes before turning the bus around for reads
system.mem_ctrls.wrPerTurnAround::20                2      0.01%    100.00% # Writes before turning the bus around for reads
system.mem_ctrls.wrPerTurnAround::total         23054                       # Writes before turning the bus around for reads
system.mem_ctrls.totQLat                  11120326500                       # Total ticks spent queuing
system.mem_ctrls.totMemAccLat             25260282750                       # Total ticks spent from burst creation until serviced by the DRAM
system.mem_ctrls.totBusLat                 3770655000                       # Total ticks spent in databus transfers
system.mem_ctrls.avgQLat                     14745.88                       # Average queueing delay per DRAM burst
system.mem_ctrls.avgBusLat                    5000.00                       # Average bus latency per DRAM burst
system.mem_ctrls.avgMemAccLat                33495.88                       # Average memory access latency per DRAM burst
system.mem_ctrls.avgRdBW                        45.02                       # Average DRAM read bandwidth in MiByte/s
system.mem_ctrls.avgWrBW                        23.93                       # Average achieved write bandwidth in MiByte/s
system.mem_ctrls.avgRdBWSys                     45.20                       # Average system read bandwidth in MiByte/s
system.mem_ctrls.avgWrBWSys                     23.95                       # Average system write bandwidth in MiByte/s
system.mem_ctrls.peakBW                      12800.00                       # Theoretical peak bandwidth in MiByte/s
system.mem_ctrls.busUtil                         0.54                       # Data bus utilization in percentage
system.mem_ctrls.busUtilRead                     0.35                       # Data bus utilization in percentage for reads
system.mem_ctrls.busUtilWrite                    0.19                       # Data bus utilization in percentage for writes
system.mem_ctrls.avgRdQLen                       1.00                       # Average read queue length when enqueuing
system.mem_ctrls.avgWrQLen                      25.00                       # Average write queue length when enqueuing
system.mem_ctrls.readRowHits                   354808                       # Number of row buffer hits during reads
system.mem_ctrls.writeRowHits                  213653                       # Number of row buffer hits during writes
system.mem_ctrls.readRowHitRate                 47.05                       # Row buffer hit rate for reads
system.mem_ctrls.writeRowHitRate                53.29                       # Row buffer hit rate for writes
system.mem_ctrls.avgGap                     925522.39                       # Average gap between requests
system.mem_ctrls.pageHitRate                    49.22                       # Row buffer hit rate, read and write combined
system.mem_ctrls_0.actEnergy               2184136920                       # Energy for activate commands per rank (pJ)
system.mem_ctrls_0.preEnergy               1191741375                       # Energy for precharge commands per rank (pJ)
system.mem_ctrls_0.readEnergy              2895500400                       # Energy for read commands per rank (pJ)
system.mem_ctrls_0.writeEnergy             1290193920                       # Energy for write commands per rank (pJ)
system.mem_ctrls_0.refreshEnergy          70015998000                       # Energy for refresh commands per rank (pJ)
system.mem_ctrls_0.actBackEnergy         230059880820                       # Energy for active background per rank (pJ)
system.mem_ctrls_0.preBackEnergy         441376416000                       # Energy for precharge background per rank (pJ)
system.mem_ctrls_0.totalEnergy           749013867435                       # Total energy per rank (pJ)
system.mem_ctrls_0.averagePower            698.725076                       # Core power per rank (mW)
system.mem_ctrls_0.memoryStateTime::IDLE 732880314500                       # Time in different power states
system.mem_ctrls_0.memoryStateTime::REF   35795500000                       # Time in different power states
system.mem_ctrls_0.memoryStateTime::PRE_PDN            0                       # Time in different power states
system.mem_ctrls_0.memoryStateTime::ACT  303296414250                       # Time in different power states
system.mem_ctrls_0.memoryStateTime::ACT_PDN            0                       # Time in different power states
system.mem_ctrls_1.actEnergy               2250234000                       # Energy for activate commands per rank (pJ)
system.mem_ctrls_1.preEnergy               1227806250                       # Energy for precharge commands per rank (pJ)
system.mem_ctrls_1.readEnergy              2986721400                       # Energy for read commands per rank (pJ)
system.mem_ctrls_1.writeEnergy             1307553840                       # Energy for write commands per rank (pJ)
system.mem_ctrls_1.refreshEnergy          70015998000                       # Energy for refresh commands per rank (pJ)
system.mem_ctrls_1.actBackEnergy         233885644155                       # Energy for active background per rank (pJ)
system.mem_ctrls_1.preBackEnergy         438020483250                       # Energy for precharge background per rank (pJ)
system.mem_ctrls_1.totalEnergy           749694440895                       # Total energy per rank (pJ)
system.mem_ctrls_1.averagePower            699.359956                       # Core power per rank (mW)
system.mem_ctrls_1.memoryStateTime::IDLE 727259202250                       # Time in different power states
system.mem_ctrls_1.memoryStateTime::REF   35795500000                       # Time in different power states
system.mem_ctrls_1.memoryStateTime::PRE_PDN            0                       # Time in different power states
system.mem_ctrls_1.memoryStateTime::ACT  308917526500                       # Time in different power states
system.mem_ctrls_1.memoryStateTime::ACT_PDN            0                       # Time in different power states
system.cpu_voltage_domain.voltage                   1                       # Voltage in Volts
system.cpu_clk_domain.clock                       500                       # Clock period in ticks
system.cpu.apic_clk_domain.clock                 8000                       # Clock period in ticks
system.cpu.workload.num_syscalls                   86                       # Number of system calls
system.cpu.numCycles                       2143949287                       # number of cpu cycles simulated
system.cpu.numWorkItemsStarted                      0                       # number of work items this cpu started
system.cpu.numWorkItemsCompleted                    0                       # number of work items this cpu completed
system.cpu.committedInsts                   500000001                       # Number of instructions committed
system.cpu.committedOps                     730450447                       # Number of ops (including micro ops) committed
system.cpu.num_int_alu_accesses             729688907                       # Number of integer alu accesses
system.cpu.num_fp_alu_accesses                    663                       # Number of float alu accesses
system.cpu.num_func_calls                     1453961                       # number of times a function call or return occured
system.cpu.num_conditional_control_insts     31770496                       # number of instructions that are conditional controls
system.cpu.num_int_insts                    729688907                       # number of integer instructions
system.cpu.num_fp_insts                           663                       # number of float instructions
system.cpu.num_int_register_reads          1698743410                       # number of times the integer registers were read
system.cpu.num_int_register_writes          621892952                       # number of times the integer registers were written
system.cpu.num_fp_register_reads                 1009                       # number of times the floating registers were read
system.cpu.num_fp_register_writes                 429                       # number of times the floating registers were written
system.cpu.num_cc_register_reads            180840558                       # number of times the CC registers were read
system.cpu.num_cc_register_writes           276245127                       # number of times the CC registers were written
system.cpu.num_mem_refs                     295985459                       # number of memory refs
system.cpu.num_load_insts                   225946750                       # Number of load instructions
system.cpu.num_store_insts                   70038709                       # Number of store instructions
system.cpu.num_idle_cycles                          0                       # Number of idle cycles
system.cpu.num_busy_cycles                 2143949287                       # Number of busy cycles
system.cpu.not_idle_fraction                        1                       # Percentage of non-idle cycles
system.cpu.idle_fraction                            0                       # Percentage of idle cycles
system.cpu.Branches                          37843296                       # Number of branches fetched
system.cpu.op_class::No_OpClass                 94739      0.01%      0.01% # Class of executed instruction
system.cpu.op_class::IntAlu                 434349070     59.46%     59.48% # Class of executed instruction
system.cpu.op_class::IntMult                    20662      0.00%     59.48% # Class of executed instruction
system.cpu.op_class::IntDiv                       119      0.00%     59.48% # Class of executed instruction
system.cpu.op_class::FloatAdd                     398      0.00%     59.48% # Class of executed instruction
system.cpu.op_class::FloatCmp                       0      0.00%     59.48% # Class of executed instruction
system.cpu.op_class::FloatCvt                       0      0.00%     59.48% # Class of executed instruction
system.cpu.op_class::FloatMult                      0      0.00%     59.48% # Class of executed instruction
system.cpu.op_class::FloatDiv                       0      0.00%     59.48% # Class of executed instruction
system.cpu.op_class::FloatSqrt                      0      0.00%     59.48% # Class of executed instruction
system.cpu.op_class::SimdAdd                        0      0.00%     59.48% # Class of executed instruction
system.cpu.op_class::SimdAddAcc                     0      0.00%     59.48% # Class of executed instruction
system.cpu.op_class::SimdAlu                        0      0.00%     59.48% # Class of executed instruction
system.cpu.op_class::SimdCmp                        0      0.00%     59.48% # Class of executed instruction
system.cpu.op_class::SimdCvt                        0      0.00%     59.48% # Class of executed instruction
system.cpu.op_class::SimdMisc                       0      0.00%     59.48% # Class of executed instruction
system.cpu.op_class::SimdMult                       0      0.00%     59.48% # Class of executed instruction
system.cpu.op_class::SimdMultAcc                    0      0.00%     59.48% # Class of executed instruction
system.cpu.op_class::SimdShift                      0      0.00%     59.48% # Class of executed instruction
system.cpu.op_class::SimdShiftAcc                   0      0.00%     59.48% # Class of executed instruction
system.cpu.op_class::SimdSqrt                       0      0.00%     59.48% # Class of executed instruction
system.cpu.op_class::SimdFloatAdd                   0      0.00%     59.48% # Class of executed instruction
system.cpu.op_class::SimdFloatAlu                   0      0.00%     59.48% # Class of executed instruction
system.cpu.op_class::SimdFloatCmp                   0      0.00%     59.48% # Class of executed instruction
system.cpu.op_class::SimdFloatCvt                   0      0.00%     59.48% # Class of executed instruction
system.cpu.op_class::SimdFloatDiv                   0      0.00%     59.48% # Class of executed instruction
system.cpu.op_class::SimdFloatMisc                  0      0.00%     59.48% # Class of executed instruction
system.cpu.op_class::SimdFloatMult                  0      0.00%     59.48% # Class of executed instruction
system.cpu.op_class::SimdFloatMultAcc               0      0.00%     59.48% # Class of executed instruction
system.cpu.op_class::SimdFloatSqrt                  0      0.00%     59.48% # Class of executed instruction
system.cpu.op_class::MemRead                225946750     30.93%     90.41% # Class of executed instruction
system.cpu.op_class::MemWrite                70038709      9.59%    100.00% # Class of executed instruction
system.cpu.op_class::IprAccess                      0      0.00%    100.00% # Class of executed instruction
system.cpu.op_class::InstPrefetch                   0      0.00%    100.00% # Class of executed instruction
system.cpu.op_class::total                  730450447                       # Class of executed instruction
system.cpu.dcache.tags.replacements           2889006                       # number of replacements
system.cpu.dcache.tags.tagsinuse           510.954570                       # Cycle average of tags in use
system.cpu.dcache.tags.total_refs           293095949                       # Total number of references to valid blocks.
system.cpu.dcache.tags.sampled_refs           2889518                       # Sample count of references to valid blocks.
system.cpu.dcache.tags.avg_refs            101.434201                       # Average number of references to valid blocks.
system.cpu.dcache.tags.warmup_cycle        3474729500                       # Cycle when the warmup percentage was hit.
system.cpu.dcache.tags.occ_blocks::cpu.data   510.954570                       # Average occupied blocks per requestor
system.cpu.dcache.tags.occ_percent::cpu.data     0.997958                       # Average percentage of cache occupancy
system.cpu.dcache.tags.occ_percent::total     0.997958                       # Average percentage of cache occupancy
system.cpu.dcache.tags.occ_task_id_blocks::1024          512                       # Occupied blocks per task id
system.cpu.dcache.tags.age_task_id_blocks_1024::1            2                       # Occupied blocks per task id
system.cpu.dcache.tags.age_task_id_blocks_1024::2           57                       # Occupied blocks per task id
system.cpu.dcache.tags.age_task_id_blocks_1024::3          375                       # Occupied blocks per task id
system.cpu.dcache.tags.age_task_id_blocks_1024::4           78                       # Occupied blocks per task id
system.cpu.dcache.tags.occ_task_id_percent::1024            1                       # Percentage of cache occupancy per task id
system.cpu.dcache.tags.tag_accesses         594860452                       # Number of tag accesses
system.cpu.dcache.tags.data_accesses        594860452                       # Number of data accesses
system.cpu.dcache.ReadReq_hits::cpu.data    223779332                       # number of ReadReq hits
system.cpu.dcache.ReadReq_hits::total       223779332                       # number of ReadReq hits
system.cpu.dcache.WriteReq_hits::cpu.data     69316617                       # number of WriteReq hits
system.cpu.dcache.WriteReq_hits::total       69316617                       # number of WriteReq hits
system.cpu.dcache.demand_hits::cpu.data     293095949                       # number of demand (read+write) hits
system.cpu.dcache.demand_hits::total        293095949                       # number of demand (read+write) hits
system.cpu.dcache.overall_hits::cpu.data    293095949                       # number of overall hits
system.cpu.dcache.overall_hits::total       293095949                       # number of overall hits
system.cpu.dcache.ReadReq_misses::cpu.data      2151041                       # number of ReadReq misses
system.cpu.dcache.ReadReq_misses::total       2151041                       # number of ReadReq misses
system.cpu.dcache.WriteReq_misses::cpu.data       722093                       # number of WriteReq misses
system.cpu.dcache.WriteReq_misses::total       722093                       # number of WriteReq misses
system.cpu.dcache.SoftPFReq_misses::cpu.data        16384                       # number of SoftPFReq misses
system.cpu.dcache.SoftPFReq_misses::total        16384                       # number of SoftPFReq misses
system.cpu.dcache.demand_misses::cpu.data      2873134                       # number of demand (read+write) misses
system.cpu.dcache.demand_misses::total        2873134                       # number of demand (read+write) misses
system.cpu.dcache.overall_misses::cpu.data      2889518                       # number of overall misses
system.cpu.dcache.overall_misses::total       2889518                       # number of overall misses
system.cpu.dcache.ReadReq_miss_latency::cpu.data  58298112000                       # number of ReadReq miss cycles
system.cpu.dcache.ReadReq_miss_latency::total  58298112000                       # number of ReadReq miss cycles
system.cpu.dcache.WriteReq_miss_latency::cpu.data  32981593000                       # number of WriteReq miss cycles
system.cpu.dcache.WriteReq_miss_latency::total  32981593000                       # number of WriteReq miss cycles
system.cpu.dcache.demand_miss_latency::cpu.data  91279705000                       # number of demand (read+write) miss cycles
system.cpu.dcache.demand_miss_latency::total  91279705000                       # number of demand (read+write) miss cycles
system.cpu.dcache.overall_miss_latency::cpu.data  91279705000                       # number of overall miss cycles
system.cpu.dcache.overall_miss_latency::total  91279705000                       # number of overall miss cycles
system.cpu.dcache.ReadReq_accesses::cpu.data    225930373                       # number of ReadReq accesses(hits+misses)
system.cpu.dcache.ReadReq_accesses::total    225930373                       # number of ReadReq accesses(hits+misses)
system.cpu.dcache.WriteReq_accesses::cpu.data     70038710                       # number of WriteReq accesses(hits+misses)
system.cpu.dcache.WriteReq_accesses::total     70038710                       # number of WriteReq accesses(hits+misses)
system.cpu.dcache.SoftPFReq_accesses::cpu.data        16384                       # number of SoftPFReq accesses(hits+misses)
system.cpu.dcache.SoftPFReq_accesses::total        16384                       # number of SoftPFReq accesses(hits+misses)
system.cpu.dcache.demand_accesses::cpu.data    295969083                       # number of demand (read+write) accesses
system.cpu.dcache.demand_accesses::total    295969083                       # number of demand (read+write) accesses
system.cpu.dcache.overall_accesses::cpu.data    295985467                       # number of overall (read+write) accesses
system.cpu.dcache.overall_accesses::total    295985467                       # number of overall (read+write) accesses
system.cpu.dcache.ReadReq_miss_rate::cpu.data     0.009521                       # miss rate for ReadReq accesses
system.cpu.dcache.ReadReq_miss_rate::total     0.009521                       # miss rate for ReadReq accesses
system.cpu.dcache.WriteReq_miss_rate::cpu.data     0.010310                       # miss rate for WriteReq accesses
system.cpu.dcache.WriteReq_miss_rate::total     0.010310                       # miss rate for WriteReq accesses
system.cpu.dcache.SoftPFReq_miss_rate::cpu.data            1                       # miss rate for SoftPFReq accesses
system.cpu.dcache.SoftPFReq_miss_rate::total            1                       # miss rate for SoftPFReq accesses
system.cpu.dcache.demand_miss_rate::cpu.data     0.009708                       # miss rate for demand accesses
system.cpu.dcache.demand_miss_rate::total     0.009708                       # miss rate for demand accesses
system.cpu.dcache.overall_miss_rate::cpu.data     0.009762                       # miss rate for overall accesses
system.cpu.dcache.overall_miss_rate::total     0.009762                       # miss rate for overall accesses
system.cpu.dcache.ReadReq_avg_miss_latency::cpu.data 27102.278385                       # average ReadReq miss latency
system.cpu.dcache.ReadReq_avg_miss_latency::total 27102.278385                       # average ReadReq miss latency
system.cpu.dcache.WriteReq_avg_miss_latency::cpu.data 45674.993387                       # average WriteReq miss latency
system.cpu.dcache.WriteReq_avg_miss_latency::total 45674.993387                       # average WriteReq miss latency
system.cpu.dcache.demand_avg_miss_latency::cpu.data 31770.082774                       # average overall miss latency
system.cpu.dcache.demand_avg_miss_latency::total 31770.082774                       # average overall miss latency
system.cpu.dcache.overall_avg_miss_latency::cpu.data 31589.941644                       # average overall miss latency
system.cpu.dcache.overall_avg_miss_latency::total 31589.941644                       # average overall miss latency
system.cpu.dcache.blocked_cycles::no_mshrs       232568                       # number of cycles access was blocked
system.cpu.dcache.blocked_cycles::no_targets            0                       # number of cycles access was blocked
system.cpu.dcache.blocked::no_mshrs              5509                       # number of cycles access was blocked
system.cpu.dcache.blocked::no_targets               0                       # number of cycles access was blocked
system.cpu.dcache.avg_blocked_cycles::no_mshrs    42.216010                       # average number of cycles each access was blocked
system.cpu.dcache.avg_blocked_cycles::no_targets          nan                       # average number of cycles each access was blocked
system.cpu.dcache.fast_writes                       0                       # number of fast writes performed
system.cpu.dcache.cache_copies                      0                       # number of cache copies performed
system.cpu.dcache.writebacks::writebacks      1340314                       # number of writebacks
system.cpu.dcache.writebacks::total           1340314                       # number of writebacks
system.cpu.dcache.ReadReq_mshr_misses::cpu.data      2151041                       # number of ReadReq MSHR misses
system.cpu.dcache.ReadReq_mshr_misses::total      2151041                       # number of ReadReq MSHR misses
system.cpu.dcache.WriteReq_mshr_misses::cpu.data       722093                       # number of WriteReq MSHR misses
system.cpu.dcache.WriteReq_mshr_misses::total       722093                       # number of WriteReq MSHR misses
system.cpu.dcache.SoftPFReq_mshr_misses::cpu.data        16384                       # number of SoftPFReq MSHR misses
system.cpu.dcache.SoftPFReq_mshr_misses::total        16384                       # number of SoftPFReq MSHR misses
system.cpu.dcache.demand_mshr_misses::cpu.data      2873134                       # number of demand (read+write) MSHR misses
system.cpu.dcache.demand_mshr_misses::total      2873134                       # number of demand (read+write) MSHR misses
system.cpu.dcache.overall_mshr_misses::cpu.data      2889518                       # number of overall MSHR misses
system.cpu.dcache.overall_mshr_misses::total      2889518                       # number of overall MSHR misses
system.cpu.dcache.ReadReq_mshr_miss_latency::cpu.data  56147071000                       # number of ReadReq MSHR miss cycles
system.cpu.dcache.ReadReq_mshr_miss_latency::total  56147071000                       # number of ReadReq MSHR miss cycles
system.cpu.dcache.WriteReq_mshr_miss_latency::cpu.data  32259500000                       # number of WriteReq MSHR miss cycles
system.cpu.dcache.WriteReq_mshr_miss_latency::total  32259500000                       # number of WriteReq MSHR miss cycles
system.cpu.dcache.SoftPFReq_mshr_miss_latency::cpu.data   1282510463                       # number of SoftPFReq MSHR miss cycles
system.cpu.dcache.SoftPFReq_mshr_miss_latency::total   1282510463                       # number of SoftPFReq MSHR miss cycles
system.cpu.dcache.demand_mshr_miss_latency::cpu.data  88406571000                       # number of demand (read+write) MSHR miss cycles
system.cpu.dcache.demand_mshr_miss_latency::total  88406571000                       # number of demand (read+write) MSHR miss cycles
system.cpu.dcache.overall_mshr_miss_latency::cpu.data  89689081463                       # number of overall MSHR miss cycles
system.cpu.dcache.overall_mshr_miss_latency::total  89689081463                       # number of overall MSHR miss cycles
system.cpu.dcache.ReadReq_mshr_miss_rate::cpu.data     0.009521                       # mshr miss rate for ReadReq accesses
system.cpu.dcache.ReadReq_mshr_miss_rate::total     0.009521                       # mshr miss rate for ReadReq accesses
system.cpu.dcache.WriteReq_mshr_miss_rate::cpu.data     0.010310                       # mshr miss rate for WriteReq accesses
system.cpu.dcache.WriteReq_mshr_miss_rate::total     0.010310                       # mshr miss rate for WriteReq accesses
system.cpu.dcache.SoftPFReq_mshr_miss_rate::cpu.data            1                       # mshr miss rate for SoftPFReq accesses
system.cpu.dcache.SoftPFReq_mshr_miss_rate::total            1                       # mshr miss rate for SoftPFReq accesses
system.cpu.dcache.demand_mshr_miss_rate::cpu.data     0.009708                       # mshr miss rate for demand accesses
system.cpu.dcache.demand_mshr_miss_rate::total     0.009708                       # mshr miss rate for demand accesses
system.cpu.dcache.overall_mshr_miss_rate::cpu.data     0.009762                       # mshr miss rate for overall accesses
system.cpu.dcache.overall_mshr_miss_rate::total     0.009762                       # mshr miss rate for overall accesses
system.cpu.dcache.ReadReq_avg_mshr_miss_latency::cpu.data 26102.278385                       # average ReadReq mshr miss latency
system.cpu.dcache.ReadReq_avg_mshr_miss_latency::total 26102.278385                       # average ReadReq mshr miss latency
system.cpu.dcache.WriteReq_avg_mshr_miss_latency::cpu.data 44674.993387                       # average WriteReq mshr miss latency
system.cpu.dcache.WriteReq_avg_mshr_miss_latency::total 44674.993387                       # average WriteReq mshr miss latency
system.cpu.dcache.SoftPFReq_avg_mshr_miss_latency::cpu.data 78278.226501                       # average SoftPFReq mshr miss latency
system.cpu.dcache.SoftPFReq_avg_mshr_miss_latency::total 78278.226501                       # average SoftPFReq mshr miss latency
system.cpu.dcache.demand_avg_mshr_miss_latency::cpu.data 30770.082774                       # average overall mshr miss latency
system.cpu.dcache.demand_avg_mshr_miss_latency::total 30770.082774                       # average overall mshr miss latency
system.cpu.dcache.overall_avg_mshr_miss_latency::cpu.data 31039.461067                       # average overall mshr miss latency
system.cpu.dcache.overall_avg_mshr_miss_latency::total 31039.461067                       # average overall mshr miss latency
system.cpu.dcache.no_allocate_misses                0                       # Number of misses that were no-allocate
system.cpu.dtb_walker_cache.tags.replacements            0                       # number of replacements
system.cpu.dtb_walker_cache.tags.tagsinuse            0                       # Cycle average of tags in use
system.cpu.dtb_walker_cache.tags.total_refs            0                       # Total number of references to valid blocks.
system.cpu.dtb_walker_cache.tags.sampled_refs            0                       # Sample count of references to valid blocks.
system.cpu.dtb_walker_cache.tags.avg_refs          nan                       # Average number of references to valid blocks.
system.cpu.dtb_walker_cache.tags.warmup_cycle            0                       # Cycle when the warmup percentage was hit.
system.cpu.dtb_walker_cache.tags.tag_accesses            0                       # Number of tag accesses
system.cpu.dtb_walker_cache.tags.data_accesses            0                       # Number of data accesses
system.cpu.dtb_walker_cache.blocked_cycles::no_mshrs            0                       # number of cycles access was blocked
system.cpu.dtb_walker_cache.blocked_cycles::no_targets            0                       # number of cycles access was blocked
system.cpu.dtb_walker_cache.blocked::no_mshrs            0                       # number of cycles access was blocked
system.cpu.dtb_walker_cache.blocked::no_targets            0                       # number of cycles access was blocked
system.cpu.dtb_walker_cache.avg_blocked_cycles::no_mshrs          nan                       # average number of cycles each access was blocked
system.cpu.dtb_walker_cache.avg_blocked_cycles::no_targets          nan                       # average number of cycles each access was blocked
system.cpu.dtb_walker_cache.fast_writes             0                       # number of fast writes performed
system.cpu.dtb_walker_cache.cache_copies            0                       # number of cache copies performed
system.cpu.dtb_walker_cache.no_allocate_misses            0                       # Number of misses that were no-allocate
system.cpu.icache.tags.replacements                45                       # number of replacements
system.cpu.icache.tags.tagsinuse           662.958963                       # Cycle average of tags in use
system.cpu.icache.tags.total_refs           687396869                       # Total number of references to valid blocks.
system.cpu.icache.tags.sampled_refs               994                       # Sample count of references to valid blocks.
system.cpu.icache.tags.avg_refs          691546.145875                       # Average number of references to valid blocks.
system.cpu.icache.tags.warmup_cycle                 0                       # Cycle when the warmup percentage was hit.
system.cpu.icache.tags.occ_blocks::cpu.inst   662.958963                       # Average occupied blocks per requestor
system.cpu.icache.tags.occ_percent::cpu.inst     0.323710                       # Average percentage of cache occupancy
system.cpu.icache.tags.occ_percent::total     0.323710                       # Average percentage of cache occupancy
system.cpu.icache.tags.occ_task_id_blocks::1024          949                       # Occupied blocks per task id
system.cpu.icache.tags.age_task_id_blocks_1024::1            7                       # Occupied blocks per task id
system.cpu.icache.tags.age_task_id_blocks_1024::3           25                       # Occupied blocks per task id
system.cpu.icache.tags.age_task_id_blocks_1024::4          917                       # Occupied blocks per task id
system.cpu.icache.tags.occ_task_id_percent::1024     0.463379                       # Percentage of cache occupancy per task id
system.cpu.icache.tags.tag_accesses        1374796720                       # Number of tag accesses
system.cpu.icache.tags.data_accesses       1374796720                       # Number of data accesses
system.cpu.icache.ReadReq_hits::cpu.inst    687396869                       # number of ReadReq hits
system.cpu.icache.ReadReq_hits::total       687396869                       # number of ReadReq hits
system.cpu.icache.demand_hits::cpu.inst     687396869                       # number of demand (read+write) hits
system.cpu.icache.demand_hits::total        687396869                       # number of demand (read+write) hits
system.cpu.icache.overall_hits::cpu.inst    687396869                       # number of overall hits
system.cpu.icache.overall_hits::total       687396869                       # number of overall hits
system.cpu.icache.ReadReq_misses::cpu.inst          994                       # number of ReadReq misses
system.cpu.icache.ReadReq_misses::total           994                       # number of ReadReq misses
system.cpu.icache.demand_misses::cpu.inst          994                       # number of demand (read+write) misses
system.cpu.icache.demand_misses::total            994                       # number of demand (read+write) misses
system.cpu.icache.overall_misses::cpu.inst          994                       # number of overall misses
system.cpu.icache.overall_misses::total           994                       # number of overall misses
system.cpu.icache.ReadReq_miss_latency::cpu.inst     77454500                       # number of ReadReq miss cycles
system.cpu.icache.ReadReq_miss_latency::total     77454500                       # number of ReadReq miss cycles
system.cpu.icache.demand_miss_latency::cpu.inst     77454500                       # number of demand (read+write) miss cycles
system.cpu.icache.demand_miss_latency::total     77454500                       # number of demand (read+write) miss cycles
system.cpu.icache.overall_miss_latency::cpu.inst     77454500                       # number of overall miss cycles
system.cpu.icache.overall_miss_latency::total     77454500                       # number of overall miss cycles
system.cpu.icache.ReadReq_accesses::cpu.inst    687397863                       # number of ReadReq accesses(hits+misses)
system.cpu.icache.ReadReq_accesses::total    687397863                       # number of ReadReq accesses(hits+misses)
system.cpu.icache.demand_accesses::cpu.inst    687397863                       # number of demand (read+write) accesses
system.cpu.icache.demand_accesses::total    687397863                       # number of demand (read+write) accesses
system.cpu.icache.overall_accesses::cpu.inst    687397863                       # number of overall (read+write) accesses
system.cpu.icache.overall_accesses::total    687397863                       # number of overall (read+write) accesses
system.cpu.icache.ReadReq_miss_rate::cpu.inst     0.000001                       # miss rate for ReadReq accesses
system.cpu.icache.ReadReq_miss_rate::total     0.000001                       # miss rate for ReadReq accesses
system.cpu.icache.demand_miss_rate::cpu.inst     0.000001                       # miss rate for demand accesses
system.cpu.icache.demand_miss_rate::total     0.000001                       # miss rate for demand accesses
system.cpu.icache.overall_miss_rate::cpu.inst     0.000001                       # miss rate for overall accesses
system.cpu.icache.overall_miss_rate::total     0.000001                       # miss rate for overall accesses
system.cpu.icache.ReadReq_avg_miss_latency::cpu.inst 77922.032193                       # average ReadReq miss latency
system.cpu.icache.ReadReq_avg_miss_latency::total 77922.032193                       # average ReadReq miss latency
system.cpu.icache.demand_avg_miss_latency::cpu.inst 77922.032193                       # average overall miss latency
system.cpu.icache.demand_avg_miss_latency::total 77922.032193                       # average overall miss latency
system.cpu.icache.overall_avg_miss_latency::cpu.inst 77922.032193                       # average overall miss latency
system.cpu.icache.overall_avg_miss_latency::total 77922.032193                       # average overall miss latency
system.cpu.icache.blocked_cycles::no_mshrs            0                       # number of cycles access was blocked
system.cpu.icache.blocked_cycles::no_targets            0                       # number of cycles access was blocked
system.cpu.icache.blocked::no_mshrs                 0                       # number of cycles access was blocked
system.cpu.icache.blocked::no_targets               0                       # number of cycles access was blocked
system.cpu.icache.avg_blocked_cycles::no_mshrs          nan                       # average number of cycles each access was blocked
system.cpu.icache.avg_blocked_cycles::no_targets          nan                       # average number of cycles each access was blocked
system.cpu.icache.fast_writes                       0                       # number of fast writes performed
system.cpu.icache.cache_copies                      0                       # number of cache copies performed
system.cpu.icache.writebacks::writebacks           45                       # number of writebacks
system.cpu.icache.writebacks::total                45                       # number of writebacks
system.cpu.icache.ReadReq_mshr_misses::cpu.inst          994                       # number of ReadReq MSHR misses
system.cpu.icache.ReadReq_mshr_misses::total          994                       # number of ReadReq MSHR misses
system.cpu.icache.demand_mshr_misses::cpu.inst          994                       # number of demand (read+write) MSHR misses
system.cpu.icache.demand_mshr_misses::total          994                       # number of demand (read+write) MSHR misses
system.cpu.icache.overall_mshr_misses::cpu.inst          994                       # number of overall MSHR misses
system.cpu.icache.overall_mshr_misses::total          994                       # number of overall MSHR misses
system.cpu.icache.ReadReq_mshr_miss_latency::cpu.inst     76460500                       # number of ReadReq MSHR miss cycles
system.cpu.icache.ReadReq_mshr_miss_latency::total     76460500                       # number of ReadReq MSHR miss cycles
system.cpu.icache.demand_mshr_miss_latency::cpu.inst     76460500                       # number of demand (read+write) MSHR miss cycles
system.cpu.icache.demand_mshr_miss_latency::total     76460500                       # number of demand (read+write) MSHR miss cycles
system.cpu.icache.overall_mshr_miss_latency::cpu.inst     76460500                       # number of overall MSHR miss cycles
system.cpu.icache.overall_mshr_miss_latency::total     76460500                       # number of overall MSHR miss cycles
system.cpu.icache.ReadReq_mshr_miss_rate::cpu.inst     0.000001                       # mshr miss rate for ReadReq accesses
system.cpu.icache.ReadReq_mshr_miss_rate::total     0.000001                       # mshr miss rate for ReadReq accesses
system.cpu.icache.demand_mshr_miss_rate::cpu.inst     0.000001                       # mshr miss rate for demand accesses
system.cpu.icache.demand_mshr_miss_rate::total     0.000001                       # mshr miss rate for demand accesses
system.cpu.icache.overall_mshr_miss_rate::cpu.inst     0.000001                       # mshr miss rate for overall accesses
system.cpu.icache.overall_mshr_miss_rate::total     0.000001                       # mshr miss rate for overall accesses
system.cpu.icache.ReadReq_avg_mshr_miss_latency::cpu.inst 76922.032193                       # average ReadReq mshr miss latency
system.cpu.icache.ReadReq_avg_mshr_miss_latency::total 76922.032193                       # average ReadReq mshr miss latency
system.cpu.icache.demand_avg_mshr_miss_latency::cpu.inst 76922.032193                       # average overall mshr miss latency
system.cpu.icache.demand_avg_mshr_miss_latency::total 76922.032193                       # average overall mshr miss latency
system.cpu.icache.overall_avg_mshr_miss_latency::cpu.inst 76922.032193                       # average overall mshr miss latency
system.cpu.icache.overall_avg_mshr_miss_latency::total 76922.032193                       # average overall mshr miss latency
system.cpu.icache.no_allocate_misses                0                       # Number of misses that were no-allocate
system.cpu.itb_walker_cache.tags.replacements            0                       # number of replacements
system.cpu.itb_walker_cache.tags.tagsinuse            0                       # Cycle average of tags in use
system.cpu.itb_walker_cache.tags.total_refs            0                       # Total number of references to valid blocks.
system.cpu.itb_walker_cache.tags.sampled_refs            0                       # Sample count of references to valid blocks.
system.cpu.itb_walker_cache.tags.avg_refs          nan                       # Average number of references to valid blocks.
system.cpu.itb_walker_cache.tags.warmup_cycle            0                       # Cycle when the warmup percentage was hit.
system.cpu.itb_walker_cache.tags.tag_accesses            0                       # Number of tag accesses
system.cpu.itb_walker_cache.tags.data_accesses            0                       # Number of data accesses
system.cpu.itb_walker_cache.blocked_cycles::no_mshrs            0                       # number of cycles access was blocked
system.cpu.itb_walker_cache.blocked_cycles::no_targets            0                       # number of cycles access was blocked
system.cpu.itb_walker_cache.blocked::no_mshrs            0                       # number of cycles access was blocked
system.cpu.itb_walker_cache.blocked::no_targets            0                       # number of cycles access was blocked
system.cpu.itb_walker_cache.avg_blocked_cycles::no_mshrs          nan                       # average number of cycles each access was blocked
system.cpu.itb_walker_cache.avg_blocked_cycles::no_targets          nan                       # average number of cycles each access was blocked
system.cpu.itb_walker_cache.fast_writes             0                       # number of fast writes performed
system.cpu.itb_walker_cache.cache_copies            0                       # number of cache copies performed
system.cpu.itb_walker_cache.no_allocate_misses            0                       # Number of misses that were no-allocate
system.l2.tags.replacements                    748341                       # number of replacements
system.l2.tags.tagsinuse                 16197.140596                       # Cycle average of tags in use
system.l2.tags.total_refs                     4278841                       # Total number of references to valid blocks.
system.l2.tags.sampled_refs                    764502                       # Sample count of references to valid blocks.
system.l2.tags.avg_refs                      5.596900                       # Average number of references to valid blocks.
system.l2.tags.warmup_cycle              133491763500                       # Cycle when the warmup percentage was hit.
system.l2.tags.occ_blocks::writebacks     7889.414592                       # Average occupied blocks per requestor
system.l2.tags.occ_blocks::cpu.inst          4.011683                       # Average occupied blocks per requestor
system.l2.tags.occ_blocks::cpu.data       8303.714321                       # Average occupied blocks per requestor
system.l2.tags.occ_percent::writebacks       0.481532                       # Average percentage of cache occupancy
system.l2.tags.occ_percent::cpu.inst         0.000245                       # Average percentage of cache occupancy
system.l2.tags.occ_percent::cpu.data         0.506819                       # Average percentage of cache occupancy
system.l2.tags.occ_percent::total            0.988595                       # Average percentage of cache occupancy
system.l2.tags.occ_task_id_blocks::1024         16161                       # Occupied blocks per task id
system.l2.tags.age_task_id_blocks_1024::1            7                       # Occupied blocks per task id
system.l2.tags.age_task_id_blocks_1024::2            7                       # Occupied blocks per task id
system.l2.tags.age_task_id_blocks_1024::3          170                       # Occupied blocks per task id
system.l2.tags.age_task_id_blocks_1024::4        15977                       # Occupied blocks per task id
system.l2.tags.occ_task_id_percent::1024     0.986389                       # Percentage of cache occupancy per task id
system.l2.tags.tag_accesses                   7266157                       # Number of tag accesses
system.l2.tags.data_accesses                  7266157                       # Number of data accesses
system.l2.WritebackDirty_hits::writebacks      1340314                       # number of WritebackDirty hits
system.l2.WritebackDirty_hits::total          1340314                       # number of WritebackDirty hits
system.l2.WritebackClean_hits::writebacks           45                       # number of WritebackClean hits
system.l2.WritebackClean_hits::total               45                       # number of WritebackClean hits
system.l2.ReadExReq_hits::cpu.data             406215                       # number of ReadExReq hits
system.l2.ReadExReq_hits::total                406215                       # number of ReadExReq hits
system.l2.ReadCleanReq_hits::cpu.inst               1                       # number of ReadCleanReq hits
system.l2.ReadCleanReq_hits::total                  1                       # number of ReadCleanReq hits
system.l2.ReadSharedReq_hits::cpu.data        1727220                       # number of ReadSharedReq hits
system.l2.ReadSharedReq_hits::total           1727220                       # number of ReadSharedReq hits
system.l2.demand_hits::cpu.inst                     1                       # number of demand (read+write) hits
system.l2.demand_hits::cpu.data               2133435                       # number of demand (read+write) hits
system.l2.demand_hits::total                  2133436                       # number of demand (read+write) hits
system.l2.overall_hits::cpu.inst                    1                       # number of overall hits
system.l2.overall_hits::cpu.data              2133435                       # number of overall hits
system.l2.overall_hits::total                 2133436                       # number of overall hits
system.l2.ReadExReq_misses::cpu.data           315878                       # number of ReadExReq misses
system.l2.ReadExReq_misses::total              315878                       # number of ReadExReq misses
system.l2.ReadCleanReq_misses::cpu.inst           993                       # number of ReadCleanReq misses
system.l2.ReadCleanReq_misses::total              993                       # number of ReadCleanReq misses
system.l2.ReadSharedReq_misses::cpu.data       440205                       # number of ReadSharedReq misses
system.l2.ReadSharedReq_misses::total          440205                       # number of ReadSharedReq misses
system.l2.demand_misses::cpu.inst                 993                       # number of demand (read+write) misses
system.l2.demand_misses::cpu.data              756083                       # number of demand (read+write) misses
system.l2.demand_misses::total                 757076                       # number of demand (read+write) misses
system.l2.overall_misses::cpu.inst                993                       # number of overall misses
system.l2.overall_misses::cpu.data             756083                       # number of overall misses
system.l2.overall_misses::total                757076                       # number of overall misses
system.l2.ReadExReq_miss_latency::cpu.data  26911074000                       # number of ReadExReq miss cycles
system.l2.ReadExReq_miss_latency::total   26911074000                       # number of ReadExReq miss cycles
system.l2.ReadCleanReq_miss_latency::cpu.inst     74957000                       # number of ReadCleanReq miss cycles
system.l2.ReadCleanReq_miss_latency::total     74957000                       # number of ReadCleanReq miss cycles
system.l2.ReadSharedReq_miss_latency::cpu.data  36042517500                       # number of ReadSharedReq miss cycles
system.l2.ReadSharedReq_miss_latency::total  36042517500                       # number of ReadSharedReq miss cycles
system.l2.demand_miss_latency::cpu.inst      74957000                       # number of demand (read+write) miss cycles
system.l2.demand_miss_latency::cpu.data   62953591500                       # number of demand (read+write) miss cycles
system.l2.demand_miss_latency::total      63028548500                       # number of demand (read+write) miss cycles
system.l2.overall_miss_latency::cpu.inst     74957000                       # number of overall miss cycles
system.l2.overall_miss_latency::cpu.data  62953591500                       # number of overall miss cycles
system.l2.overall_miss_latency::total     63028548500                       # number of overall miss cycles
system.l2.WritebackDirty_accesses::writebacks      1340314                       # number of WritebackDirty accesses(hits+misses)
system.l2.WritebackDirty_accesses::total      1340314                       # number of WritebackDirty accesses(hits+misses)
system.l2.WritebackClean_accesses::writebacks           45                       # number of WritebackClean accesses(hits+misses)
system.l2.WritebackClean_accesses::total           45                       # number of WritebackClean accesses(hits+misses)
system.l2.ReadExReq_accesses::cpu.data         722093                       # number of ReadExReq accesses(hits+misses)
system.l2.ReadExReq_accesses::total            722093                       # number of ReadExReq accesses(hits+misses)
system.l2.ReadCleanReq_accesses::cpu.inst          994                       # number of ReadCleanReq accesses(hits+misses)
system.l2.ReadCleanReq_accesses::total            994                       # number of ReadCleanReq accesses(hits+misses)
system.l2.ReadSharedReq_accesses::cpu.data      2167425                       # number of ReadSharedReq accesses(hits+misses)
system.l2.ReadSharedReq_accesses::total       2167425                       # number of ReadSharedReq accesses(hits+misses)
system.l2.demand_accesses::cpu.inst               994                       # number of demand (read+write) accesses
system.l2.demand_accesses::cpu.data           2889518                       # number of demand (read+write) accesses
system.l2.demand_accesses::total              2890512                       # number of demand (read+write) accesses
system.l2.overall_accesses::cpu.inst              994                       # number of overall (read+write) accesses
system.l2.overall_accesses::cpu.data          2889518                       # number of overall (read+write) accesses
system.l2.overall_accesses::total             2890512                       # number of overall (read+write) accesses
system.l2.ReadExReq_miss_rate::cpu.data      0.437448                       # miss rate for ReadExReq accesses
system.l2.ReadExReq_miss_rate::total         0.437448                       # miss rate for ReadExReq accesses
system.l2.ReadCleanReq_miss_rate::cpu.inst     0.998994                       # miss rate for ReadCleanReq accesses
system.l2.ReadCleanReq_miss_rate::total      0.998994                       # miss rate for ReadCleanReq accesses
system.l2.ReadSharedReq_miss_rate::cpu.data     0.203100                       # miss rate for ReadSharedReq accesses
system.l2.ReadSharedReq_miss_rate::total     0.203100                       # miss rate for ReadSharedReq accesses
system.l2.demand_miss_rate::cpu.inst         0.998994                       # miss rate for demand accesses
system.l2.demand_miss_rate::cpu.data         0.261664                       # miss rate for demand accesses
system.l2.demand_miss_rate::total            0.261918                       # miss rate for demand accesses
system.l2.overall_miss_rate::cpu.inst        0.998994                       # miss rate for overall accesses
system.l2.overall_miss_rate::cpu.data        0.261664                       # miss rate for overall accesses
system.l2.overall_miss_rate::total           0.261918                       # miss rate for overall accesses
system.l2.ReadExReq_avg_miss_latency::cpu.data 85194.518137                       # average ReadExReq miss latency
system.l2.ReadExReq_avg_miss_latency::total 85194.518137                       # average ReadExReq miss latency
system.l2.ReadCleanReq_avg_miss_latency::cpu.inst 75485.397784                       # average ReadCleanReq miss latency
system.l2.ReadCleanReq_avg_miss_latency::total 75485.397784                       # average ReadCleanReq miss latency
system.l2.ReadSharedReq_avg_miss_latency::cpu.data 81876.665417                       # average ReadSharedReq miss latency
system.l2.ReadSharedReq_avg_miss_latency::total 81876.665417                       # average ReadSharedReq miss latency
system.l2.demand_avg_miss_latency::cpu.inst 75485.397784                       # average overall miss latency
system.l2.demand_avg_miss_latency::cpu.data 83262.805142                       # average overall miss latency
system.l2.demand_avg_miss_latency::total 83252.604098                       # average overall miss latency
system.l2.overall_avg_miss_latency::cpu.inst 75485.397784                       # average overall miss latency
system.l2.overall_avg_miss_latency::cpu.data 83262.805142                       # average overall miss latency
system.l2.overall_avg_miss_latency::total 83252.604098                       # average overall miss latency
system.l2.blocked_cycles::no_mshrs                  0                       # number of cycles access was blocked
system.l2.blocked_cycles::no_targets                0                       # number of cycles access was blocked
system.l2.blocked::no_mshrs                         0                       # number of cycles access was blocked
system.l2.blocked::no_targets                       0                       # number of cycles access was blocked
system.l2.avg_blocked_cycles::no_mshrs            nan                       # average number of cycles each access was blocked
system.l2.avg_blocked_cycles::no_targets          nan                       # average number of cycles each access was blocked
system.l2.fast_writes                               0                       # number of fast writes performed
system.l2.cache_copies                              0                       # number of cache copies performed
system.l2.writebacks::writebacks               401126                       # number of writebacks
system.l2.writebacks::total                    401126                       # number of writebacks
system.l2.CleanEvict_mshr_misses::writebacks        14034                       # number of CleanEvict MSHR misses
system.l2.CleanEvict_mshr_misses::total         14034                       # number of CleanEvict MSHR misses
system.l2.ReadExReq_mshr_misses::cpu.data       315878                       # number of ReadExReq MSHR misses
system.l2.ReadExReq_mshr_misses::total         315878                       # number of ReadExReq MSHR misses
system.l2.ReadCleanReq_mshr_misses::cpu.inst          993                       # number of ReadCleanReq MSHR misses
system.l2.ReadCleanReq_mshr_misses::total          993                       # number of ReadCleanReq MSHR misses
system.l2.ReadSharedReq_mshr_misses::cpu.data       440205                       # number of ReadSharedReq MSHR misses
system.l2.ReadSharedReq_mshr_misses::total       440205                       # number of ReadSharedReq MSHR misses
system.l2.demand_mshr_misses::cpu.inst            993                       # number of demand (read+write) MSHR misses
system.l2.demand_mshr_misses::cpu.data         756083                       # number of demand (read+write) MSHR misses
system.l2.demand_mshr_misses::total            757076                       # number of demand (read+write) MSHR misses
system.l2.overall_mshr_misses::cpu.inst           993                       # number of overall MSHR misses
system.l2.overall_mshr_misses::cpu.data        756083                       # number of overall MSHR misses
system.l2.overall_mshr_misses::total           757076                       # number of overall MSHR misses
system.l2.ReadExReq_mshr_miss_latency::cpu.data  23752294000                       # number of ReadExReq MSHR miss cycles
system.l2.ReadExReq_mshr_miss_latency::total  23752294000                       # number of ReadExReq MSHR miss cycles
system.l2.ReadCleanReq_mshr_miss_latency::cpu.inst     65027000                       # number of ReadCleanReq MSHR miss cycles
system.l2.ReadCleanReq_mshr_miss_latency::total     65027000                       # number of ReadCleanReq MSHR miss cycles
system.l2.ReadSharedReq_mshr_miss_latency::cpu.data  31640467500                       # number of ReadSharedReq MSHR miss cycles
system.l2.ReadSharedReq_mshr_miss_latency::total  31640467500                       # number of ReadSharedReq MSHR miss cycles
system.l2.demand_mshr_miss_latency::cpu.inst     65027000                       # number of demand (read+write) MSHR miss cycles
system.l2.demand_mshr_miss_latency::cpu.data  55392761500                       # number of demand (read+write) MSHR miss cycles
system.l2.demand_mshr_miss_latency::total  55457788500                       # number of demand (read+write) MSHR miss cycles
system.l2.overall_mshr_miss_latency::cpu.inst     65027000                       # number of overall MSHR miss cycles
system.l2.overall_mshr_miss_latency::cpu.data  55392761500                       # number of overall MSHR miss cycles
system.l2.overall_mshr_miss_latency::total  55457788500                       # number of overall MSHR miss cycles
system.l2.CleanEvict_mshr_miss_rate::writebacks          inf                       # mshr miss rate for CleanEvict accesses
system.l2.CleanEvict_mshr_miss_rate::total          inf                       # mshr miss rate for CleanEvict accesses
system.l2.ReadExReq_mshr_miss_rate::cpu.data     0.437448                       # mshr miss rate for ReadExReq accesses
system.l2.ReadExReq_mshr_miss_rate::total     0.437448                       # mshr miss rate for ReadExReq accesses
system.l2.ReadCleanReq_mshr_miss_rate::cpu.inst     0.998994                       # mshr miss rate for ReadCleanReq accesses
system.l2.ReadCleanReq_mshr_miss_rate::total     0.998994                       # mshr miss rate for ReadCleanReq accesses
system.l2.ReadSharedReq_mshr_miss_rate::cpu.data     0.203100                       # mshr miss rate for ReadSharedReq accesses
system.l2.ReadSharedReq_mshr_miss_rate::total     0.203100                       # mshr miss rate for ReadSharedReq accesses
system.l2.demand_mshr_miss_rate::cpu.inst     0.998994                       # mshr miss rate for demand accesses
system.l2.demand_mshr_miss_rate::cpu.data     0.261664                       # mshr miss rate for demand accesses
system.l2.demand_mshr_miss_rate::total       0.261918                       # mshr miss rate for demand accesses
system.l2.overall_mshr_miss_rate::cpu.inst     0.998994                       # mshr miss rate for overall accesses
system.l2.overall_mshr_miss_rate::cpu.data     0.261664                       # mshr miss rate for overall accesses
system.l2.overall_mshr_miss_rate::total      0.261918                       # mshr miss rate for overall accesses
system.l2.ReadExReq_avg_mshr_miss_latency::cpu.data 75194.518137                       # average ReadExReq mshr miss latency
system.l2.ReadExReq_avg_mshr_miss_latency::total 75194.518137                       # average ReadExReq mshr miss latency
system.l2.ReadCleanReq_avg_mshr_miss_latency::cpu.inst 65485.397784                       # average ReadCleanReq mshr miss latency
system.l2.ReadCleanReq_avg_mshr_miss_latency::total 65485.397784                       # average ReadCleanReq mshr miss latency
system.l2.ReadSharedReq_avg_mshr_miss_latency::cpu.data 71876.665417                       # average ReadSharedReq mshr miss latency
system.l2.ReadSharedReq_avg_mshr_miss_latency::total 71876.665417                       # average ReadSharedReq mshr miss latency
system.l2.demand_avg_mshr_miss_latency::cpu.inst 65485.397784                       # average overall mshr miss latency
system.l2.demand_avg_mshr_miss_latency::cpu.data 73262.805142                       # average overall mshr miss latency
system.l2.demand_avg_mshr_miss_latency::total 73252.604098                       # average overall mshr miss latency
system.l2.overall_avg_mshr_miss_latency::cpu.inst 65485.397784                       # average overall mshr miss latency
system.l2.overall_avg_mshr_miss_latency::cpu.data 73262.805142                       # average overall mshr miss latency
system.l2.overall_avg_mshr_miss_latency::total 73252.604098                       # average overall mshr miss latency
system.l2.no_allocate_misses                        0                       # Number of misses that were no-allocate
system.membus.trans_dist::ReadResp             441198                       # Transaction distribution
system.membus.trans_dist::WritebackDirty       401126                       # Transaction distribution
system.membus.trans_dist::CleanEvict           338658                       # Transaction distribution
system.membus.trans_dist::ReadExReq            315878                       # Transaction distribution
system.membus.trans_dist::ReadExResp           315878                       # Transaction distribution
system.membus.trans_dist::ReadSharedReq        441198                       # Transaction distribution
system.membus.pkt_count_system.l2.mem_side::system.mem_ctrls.port      2253936                       # Packet count per connected master and slave (bytes)
system.membus.pkt_count_system.l2.mem_side::total      2253936                       # Packet count per connected master and slave (bytes)
system.membus.pkt_count::total                2253936                       # Packet count per connected master and slave (bytes)
system.membus.pkt_size_system.l2.mem_side::system.mem_ctrls.port     74124928                       # Cumulative packet size per connected master and slave (bytes)
system.membus.pkt_size_system.l2.mem_side::total     74124928                       # Cumulative packet size per connected master and slave (bytes)
system.membus.pkt_size::total                74124928                       # Cumulative packet size per connected master and slave (bytes)
system.membus.snoops                                0                       # Total snoops (count)
system.membus.snoop_fanout::samples           1496860                       # Request fanout histogram
system.membus.snoop_fanout::mean                    0                       # Request fanout histogram
system.membus.snoop_fanout::stdev                   0                       # Request fanout histogram
system.membus.snoop_fanout::underflows              0      0.00%      0.00% # Request fanout histogram
system.membus.snoop_fanout::0                 1496860    100.00%    100.00% # Request fanout histogram
system.membus.snoop_fanout::1                       0      0.00%    100.00% # Request fanout histogram
system.membus.snoop_fanout::overflows               0      0.00%    100.00% # Request fanout histogram
system.membus.snoop_fanout::min_value               0                       # Request fanout histogram
system.membus.snoop_fanout::max_value               0                       # Request fanout histogram
system.membus.snoop_fanout::total             1496860                       # Request fanout histogram
system.membus.reqLayer2.occupancy          3109425000                       # Layer occupancy (ticks)
system.membus.reqLayer2.utilization               0.3                       # Layer utilization (%)
system.membus.respLayer1.occupancy         4096476000                       # Layer occupancy (ticks)
system.membus.respLayer1.utilization              0.4                       # Layer utilization (%)
system.tol2bus.snoop_filter.tot_requests      5779563                       # Total number of requests made to the snoop filter.
system.tol2bus.snoop_filter.hit_single_requests      2889051                       # Number of requests hitting in the snoop filter with a single holder of the requested data.
system.tol2bus.snoop_filter.hit_multi_requests            1                       # Number of requests hitting in the snoop filter with multiple (>1) holders of the requested data.
system.tol2bus.snoop_filter.tot_snoops          22591                       # Total number of snoops made to the snoop filter.
system.tol2bus.snoop_filter.hit_single_snoops        22591                       # Number of snoops hitting in the snoop filter with a single holder of the requested data.
system.tol2bus.snoop_filter.hit_multi_snoops            0                       # Number of snoops hitting in the snoop filter with multiple (>1) holders of the requested data.
system.tol2bus.trans_dist::ReadResp           2168419                       # Transaction distribution
system.tol2bus.trans_dist::WritebackDirty      1741440                       # Transaction distribution
system.tol2bus.trans_dist::WritebackClean           45                       # Transaction distribution
system.tol2bus.trans_dist::CleanEvict         1895906                       # Transaction distribution
system.tol2bus.trans_dist::ReadExReq           722093                       # Transaction distribution
system.tol2bus.trans_dist::ReadExResp          722093                       # Transaction distribution
system.tol2bus.trans_dist::ReadCleanReq           994                       # Transaction distribution
system.tol2bus.trans_dist::ReadSharedReq      2167425                       # Transaction distribution
system.tol2bus.pkt_count_system.cpu.icache.mem_side::system.l2.cpu_side         2033                       # Packet count per connected master and slave (bytes)
system.tol2bus.pkt_count_system.cpu.dcache.mem_side::system.l2.cpu_side      8668041                       # Packet count per connected master and slave (bytes)
system.tol2bus.pkt_count::total               8670074                       # Packet count per connected master and slave (bytes)
system.tol2bus.pkt_size_system.cpu.icache.mem_side::system.l2.cpu_side        66496                       # Cumulative packet size per connected master and slave (bytes)
system.tol2bus.pkt_size_system.cpu.dcache.mem_side::system.l2.cpu_side    270709248                       # Cumulative packet size per connected master and slave (bytes)
system.tol2bus.pkt_size::total              270775744                       # Cumulative packet size per connected master and slave (bytes)
system.tol2bus.snoops                          748341                       # Total snoops (count)
system.tol2bus.snoop_fanout::samples          3638853                       # Request fanout histogram
system.tol2bus.snoop_fanout::mean            0.006209                       # Request fanout histogram
system.tol2bus.snoop_fanout::stdev           0.078549                       # Request fanout histogram
system.tol2bus.snoop_fanout::underflows             0      0.00%      0.00% # Request fanout histogram
system.tol2bus.snoop_fanout::0                3616261     99.38%     99.38% # Request fanout histogram
system.tol2bus.snoop_fanout::1                  22592      0.62%    100.00% # Request fanout histogram
system.tol2bus.snoop_fanout::2                      0      0.00%    100.00% # Request fanout histogram
system.tol2bus.snoop_fanout::3                      0      0.00%    100.00% # Request fanout histogram
system.tol2bus.snoop_fanout::4                      0      0.00%    100.00% # Request fanout histogram
system.tol2bus.snoop_fanout::overflows              0      0.00%    100.00% # Request fanout histogram
system.tol2bus.snoop_fanout::min_value              0                       # Request fanout histogram
system.tol2bus.snoop_fanout::max_value              1                       # Request fanout histogram
system.tol2bus.snoop_fanout::total            3638853                       # Request fanout histogram
system.tol2bus.reqLayer0.occupancy         4230140500                       # Layer occupancy (ticks)
system.tol2bus.reqLayer0.utilization              0.4                       # Layer utilization (%)
system.tol2bus.respLayer0.occupancy           1491000                       # Layer occupancy (ticks)
system.tol2bus.respLayer0.utilization             0.0                       # Layer utilization (%)
system.tol2bus.respLayer1.occupancy        4334277000                       # Layer occupancy (ticks)
system.tol2bus.respLayer1.utilization             0.4                       # Layer utilization (%)

---------- End Simulation Statistics   ----------
