
---------- Begin Simulation Statistics ----------
sim_seconds                                  1.060319                       # Number of seconds simulated
sim_ticks                                1060319327500                       # Number of ticks simulated
final_tick                               1060319327500                       # Number of ticks from beginning of simulation (restored from checkpoints and never reset)
sim_freq                                 1000000000000                       # Frequency of simulated ticks
host_inst_rate                                  38506                       # Simulator instruction rate (inst/s)
host_op_rate                                    56254                       # Simulator op (including micro ops) rate (op/s)
host_tick_rate                               81658268                       # Simulator tick rate (ticks/s)
host_mem_usage                                 828676                       # Number of bytes of host memory used
host_seconds                                 12984.84                       # Real time elapsed on the host
sim_insts                                   500000001                       # Number of instructions simulated
sim_ops                                     730450447                       # Number of ops (including micro ops) simulated
system.voltage_domain.voltage                       1                       # Voltage in Volts
system.clk_domain.clock                          1000                       # Clock period in ticks
system.mem_ctrls.bytes_read::cpu.inst           63552                       # Number of bytes read from this memory
system.mem_ctrls.bytes_read::cpu.data        47842112                       # Number of bytes read from this memory
system.mem_ctrls.bytes_read::total           47905664                       # Number of bytes read from this memory
system.mem_ctrls.bytes_inst_read::cpu.inst        63552                       # Number of instructions bytes read from this memory
system.mem_ctrls.bytes_inst_read::total         63552                       # Number of instructions bytes read from this memory
system.mem_ctrls.bytes_written::writebacks     24841600                       # Number of bytes written to this memory
system.mem_ctrls.bytes_written::total        24841600                       # Number of bytes written to this memory
system.mem_ctrls.num_reads::cpu.inst              993                       # Number of read requests responded to by this memory
system.mem_ctrls.num_reads::cpu.data           747533                       # Number of read requests responded to by this memory
system.mem_ctrls.num_reads::total              748526                       # Number of read requests responded to by this memory
system.mem_ctrls.num_writes::writebacks        388150                       # Number of write requests responded to by this memory
system.mem_ctrls.num_writes::total             388150                       # Number of write requests responded to by this memory
system.mem_ctrls.bw_read::cpu.inst              59937                       # Total read bandwidth from this memory (bytes/s)
system.mem_ctrls.bw_read::cpu.data           45120475                       # Total read bandwidth from this memory (bytes/s)
system.mem_ctrls.bw_read::total              45180412                       # Total read bandwidth from this memory (bytes/s)
system.mem_ctrls.bw_inst_read::cpu.inst         59937                       # Instruction read bandwidth from this memory (bytes/s)
system.mem_ctrls.bw_inst_read::total            59937                       # Instruction read bandwidth from this memory (bytes/s)
system.mem_ctrls.bw_write::writebacks        23428414                       # Write bandwidth from this memory (bytes/s)
system.mem_ctrls.bw_write::total             23428414                       # Write bandwidth from this memory (bytes/s)
system.mem_ctrls.bw_total::writebacks        23428414                       # Total bandwidth to/from this memory (bytes/s)
system.mem_ctrls.bw_total::cpu.inst             59937                       # Total bandwidth to/from this memory (bytes/s)
system.mem_ctrls.bw_total::cpu.data          45120475                       # Total bandwidth to/from this memory (bytes/s)
system.mem_ctrls.bw_total::total             68608826                       # Total bandwidth to/from this memory (bytes/s)
system.mem_ctrls.readReqs                      748526                       # Number of read requests accepted
system.mem_ctrls.writeReqs                     388150                       # Number of write requests accepted
system.mem_ctrls.readBursts                    748526                       # Number of DRAM read bursts, including those serviced by the write queue
system.mem_ctrls.writeBursts                   388150                       # Number of DRAM write bursts, including those merged in the write queue
system.mem_ctrls.bytesReadDRAM               47816704                       # Total number of bytes read from DRAM
system.mem_ctrls.bytesReadWrQ                   88960                       # Total number of bytes read from write queue
system.mem_ctrls.bytesWritten                24839744                       # Total number of bytes written to DRAM
system.mem_ctrls.bytesReadSys                47905664                       # Total read bytes from the system interface side
system.mem_ctrls.bytesWrittenSys             24841600                       # Total written bytes from the system interface side
system.mem_ctrls.servicedByWrQ                   1390                       # Number of DRAM read bursts serviced by the write queue
system.mem_ctrls.mergedWrBursts                    13                       # Number of DRAM write bursts merged with an existing one
system.mem_ctrls.neitherReadNorWriteReqs       343080                       # Number of requests that are neither read nor write
system.mem_ctrls.perBankRdBursts::0             48774                       # Per bank write bursts
system.mem_ctrls.perBankRdBursts::1             47369                       # Per bank write bursts
system.mem_ctrls.perBankRdBursts::2             47799                       # Per bank write bursts
system.mem_ctrls.perBankRdBursts::3             45004                       # Per bank write bursts
system.mem_ctrls.perBankRdBursts::4             44415                       # Per bank write bursts
system.mem_ctrls.perBankRdBursts::5             43976                       # Per bank write bursts
system.mem_ctrls.perBankRdBursts::6             45773                       # Per bank write bursts
system.mem_ctrls.perBankRdBursts::7             44961                       # Per bank write bursts
system.mem_ctrls.perBankRdBursts::8             42928                       # Per bank write bursts
system.mem_ctrls.perBankRdBursts::9             43315                       # Per bank write bursts
system.mem_ctrls.perBankRdBursts::10            47075                       # Per bank write bursts
system.mem_ctrls.perBankRdBursts::11            47500                       # Per bank write bursts
system.mem_ctrls.perBankRdBursts::12            49180                       # Per bank write bursts
system.mem_ctrls.perBankRdBursts::13            49185                       # Per bank write bursts
system.mem_ctrls.perBankRdBursts::14            49543                       # Per bank write bursts
system.mem_ctrls.perBankRdBursts::15            50339                       # Per bank write bursts
system.mem_ctrls.perBankWrBursts::0             25055                       # Per bank write bursts
system.mem_ctrls.perBankWrBursts::1             24624                       # Per bank write bursts
system.mem_ctrls.perBankWrBursts::2             25966                       # Per bank write bursts
system.mem_ctrls.perBankWrBursts::3             23873                       # Per bank write bursts
system.mem_ctrls.perBankWrBursts::4             23155                       # Per bank write bursts
system.mem_ctrls.perBankWrBursts::5             22663                       # Per bank write bursts
system.mem_ctrls.perBankWrBursts::6             23778                       # Per bank write bursts
system.mem_ctrls.perBankWrBursts::7             23736                       # Per bank write bursts
system.mem_ctrls.perBankWrBursts::8             22861                       # Per bank write bursts
system.mem_ctrls.perBankWrBursts::9             23016                       # Per bank write bursts
system.mem_ctrls.perBankWrBursts::10            24382                       # Per bank write bursts
system.mem_ctrls.perBankWrBursts::11            24169                       # Per bank write bursts
system.mem_ctrls.perBankWrBursts::12            24645                       # Per bank write bursts
system.mem_ctrls.perBankWrBursts::13            24979                       # Per bank write bursts
system.mem_ctrls.perBankWrBursts::14            25171                       # Per bank write bursts
system.mem_ctrls.perBankWrBursts::15            26048                       # Per bank write bursts
system.mem_ctrls.numRdRetry                         0                       # Number of times read queue was full causing retry
system.mem_ctrls.numWrRetry                         0                       # Number of times write queue was full causing retry
system.mem_ctrls.totGap                  1060286572500                       # Total gap between requests
system.mem_ctrls.readPktSize::0                     0                       # Read request sizes (log2)
system.mem_ctrls.readPktSize::1                     0                       # Read request sizes (log2)
system.mem_ctrls.readPktSize::2                     0                       # Read request sizes (log2)
system.mem_ctrls.readPktSize::3                     0                       # Read request sizes (log2)
system.mem_ctrls.readPktSize::4                     0                       # Read request sizes (log2)
system.mem_ctrls.readPktSize::5                     0                       # Read request sizes (log2)
system.mem_ctrls.readPktSize::6                748526                       # Read request sizes (log2)
system.mem_ctrls.writePktSize::0                    0                       # Write request sizes (log2)
system.mem_ctrls.writePktSize::1                    0                       # Write request sizes (log2)
system.mem_ctrls.writePktSize::2                    0                       # Write request sizes (log2)
system.mem_ctrls.writePktSize::3                    0                       # Write request sizes (log2)
system.mem_ctrls.writePktSize::4                    0                       # Write request sizes (log2)
system.mem_ctrls.writePktSize::5                    0                       # Write request sizes (log2)
system.mem_ctrls.writePktSize::6               388150                       # Write request sizes (log2)
system.mem_ctrls.rdQLenPdf::0                  738529                       # What read queue length does an incoming req see
system.mem_ctrls.rdQLenPdf::1                    8083                       # What read queue length does an incoming req see
system.mem_ctrls.rdQLenPdf::2                     410                       # What read queue length does an incoming req see
system.mem_ctrls.rdQLenPdf::3                     114                       # What read queue length does an incoming req see
system.mem_ctrls.rdQLenPdf::4                       0                       # What read queue length does an incoming req see
system.mem_ctrls.rdQLenPdf::5                       0                       # What read queue length does an incoming req see
system.mem_ctrls.rdQLenPdf::6                       0                       # What read queue length does an incoming req see
system.mem_ctrls.rdQLenPdf::7                       0                       # What read queue length does an incoming req see
system.mem_ctrls.rdQLenPdf::8                       0                       # What read queue length does an incoming req see
system.mem_ctrls.rdQLenPdf::9                       0                       # What read queue length does an incoming req see
system.mem_ctrls.rdQLenPdf::10                      0                       # What read queue length does an incoming req see
system.mem_ctrls.rdQLenPdf::11                      0                       # What read queue length does an incoming req see
system.mem_ctrls.rdQLenPdf::12                      0                       # What read queue length does an incoming req see
system.mem_ctrls.rdQLenPdf::13                      0                       # What read queue length does an incoming req see
system.mem_ctrls.rdQLenPdf::14                      0                       # What read queue length does an incoming req see
system.mem_ctrls.rdQLenPdf::15                      0                       # What read queue length does an incoming req see
system.mem_ctrls.rdQLenPdf::16                      0                       # What read queue length does an incoming req see
system.mem_ctrls.rdQLenPdf::17                      0                       # What read queue length does an incoming req see
system.mem_ctrls.rdQLenPdf::18                      0                       # What read queue length does an incoming req see
system.mem_ctrls.rdQLenPdf::19                      0                       # What read queue length does an incoming req see
system.mem_ctrls.rdQLenPdf::20                      0                       # What read queue length does an incoming req see
system.mem_ctrls.rdQLenPdf::21                      0                       # What read queue length does an incoming req see
system.mem_ctrls.rdQLenPdf::22                      0                       # What read queue length does an incoming req see
system.mem_ctrls.rdQLenPdf::23                      0                       # What read queue length does an incoming req see
system.mem_ctrls.rdQLenPdf::24                      0                       # What read queue length does an incoming req see
system.mem_ctrls.rdQLenPdf::25                      0                       # What read queue length does an incoming req see
system.mem_ctrls.rdQLenPdf::26                      0                       # What read queue length does an incoming req see
system.mem_ctrls.rdQLenPdf::27                      0                       # What read queue length does an incoming req see
system.mem_ctrls.rdQLenPdf::28                      0                       # What read queue length does an incoming req see
system.mem_ctrls.rdQLenPdf::29                      0                       # What read queue length does an incoming req see
system.mem_ctrls.rdQLenPdf::30                      0                       # What read queue length does an incoming req see
system.mem_ctrls.rdQLenPdf::31                      0                       # What read queue length does an incoming req see
system.mem_ctrls.wrQLenPdf::0                       1                       # What write queue length does an incoming req see
system.mem_ctrls.wrQLenPdf::1                       1                       # What write queue length does an incoming req see
system.mem_ctrls.wrQLenPdf::2                       1                       # What write queue length does an incoming req see
system.mem_ctrls.wrQLenPdf::3                       1                       # What write queue length does an incoming req see
system.mem_ctrls.wrQLenPdf::4                       1                       # What write queue length does an incoming req see
system.mem_ctrls.wrQLenPdf::5                       1                       # What write queue length does an incoming req see
system.mem_ctrls.wrQLenPdf::6                       1                       # What write queue length does an incoming req see
system.mem_ctrls.wrQLenPdf::7                       1                       # What write queue length does an incoming req see
system.mem_ctrls.wrQLenPdf::8                       1                       # What write queue length does an incoming req see
system.mem_ctrls.wrQLenPdf::9                       1                       # What write queue length does an incoming req see
system.mem_ctrls.wrQLenPdf::10                      1                       # What write queue length does an incoming req see
system.mem_ctrls.wrQLenPdf::11                      1                       # What write queue length does an incoming req see
system.mem_ctrls.wrQLenPdf::12                      1                       # What write queue length does an incoming req see
system.mem_ctrls.wrQLenPdf::13                      1                       # What write queue length does an incoming req see
system.mem_ctrls.wrQLenPdf::14                      1                       # What write queue length does an incoming req see
system.mem_ctrls.wrQLenPdf::15                  14780                       # What write queue length does an incoming req see
system.mem_ctrls.wrQLenPdf::16                  15569                       # What write queue length does an incoming req see
system.mem_ctrls.wrQLenPdf::17                  22338                       # What write queue length does an incoming req see
system.mem_ctrls.wrQLenPdf::18                  22363                       # What write queue length does an incoming req see
system.mem_ctrls.wrQLenPdf::19                  22360                       # What write queue length does an incoming req see
system.mem_ctrls.wrQLenPdf::20                  22348                       # What write queue length does an incoming req see
system.mem_ctrls.wrQLenPdf::21                  22346                       # What write queue length does an incoming req see
system.mem_ctrls.wrQLenPdf::22                  22342                       # What write queue length does an incoming req see
system.mem_ctrls.wrQLenPdf::23                  22344                       # What write queue length does an incoming req see
system.mem_ctrls.wrQLenPdf::24                  22339                       # What write queue length does an incoming req see
system.mem_ctrls.wrQLenPdf::25                  22347                       # What write queue length does an incoming req see
system.mem_ctrls.wrQLenPdf::26                  22352                       # What write queue length does an incoming req see
system.mem_ctrls.wrQLenPdf::27                  22437                       # What write queue length does an incoming req see
system.mem_ctrls.wrQLenPdf::28                  22487                       # What write queue length does an incoming req see
system.mem_ctrls.wrQLenPdf::29                  22347                       # What write queue length does an incoming req see
system.mem_ctrls.wrQLenPdf::30                  22340                       # What write queue length does an incoming req see
system.mem_ctrls.wrQLenPdf::31                  22337                       # What write queue length does an incoming req see
system.mem_ctrls.wrQLenPdf::32                  22337                       # What write queue length does an incoming req see
system.mem_ctrls.wrQLenPdf::33                      9                       # What write queue length does an incoming req see
system.mem_ctrls.wrQLenPdf::34                      0                       # What write queue length does an incoming req see
system.mem_ctrls.wrQLenPdf::35                      0                       # What write queue length does an incoming req see
system.mem_ctrls.wrQLenPdf::36                      0                       # What write queue length does an incoming req see
system.mem_ctrls.wrQLenPdf::37                      0                       # What write queue length does an incoming req see
system.mem_ctrls.wrQLenPdf::38                      0                       # What write queue length does an incoming req see
system.mem_ctrls.wrQLenPdf::39                      0                       # What write queue length does an incoming req see
system.mem_ctrls.wrQLenPdf::40                      0                       # What write queue length does an incoming req see
system.mem_ctrls.wrQLenPdf::41                      0                       # What write queue length does an incoming req see
system.mem_ctrls.wrQLenPdf::42                      0                       # What write queue length does an incoming req see
system.mem_ctrls.wrQLenPdf::43                      0                       # What write queue length does an incoming req see
system.mem_ctrls.wrQLenPdf::44                      0                       # What write queue length does an incoming req see
system.mem_ctrls.wrQLenPdf::45                      0                       # What write queue length does an incoming req see
system.mem_ctrls.wrQLenPdf::46                      0                       # What write queue length does an incoming req see
system.mem_ctrls.wrQLenPdf::47                      0                       # What write queue length does an incoming req see
system.mem_ctrls.wrQLenPdf::48                      0                       # What write queue length does an incoming req see
system.mem_ctrls.wrQLenPdf::49                      0                       # What write queue length does an incoming req see
system.mem_ctrls.wrQLenPdf::50                      0                       # What write queue length does an incoming req see
system.mem_ctrls.wrQLenPdf::51                      0                       # What write queue length does an incoming req see
system.mem_ctrls.wrQLenPdf::52                      0                       # What write queue length does an incoming req see
system.mem_ctrls.wrQLenPdf::53                      0                       # What write queue length does an incoming req see
system.mem_ctrls.wrQLenPdf::54                      0                       # What write queue length does an incoming req see
system.mem_ctrls.wrQLenPdf::55                      0                       # What write queue length does an incoming req see
system.mem_ctrls.wrQLenPdf::56                      0                       # What write queue length does an incoming req see
system.mem_ctrls.wrQLenPdf::57                      0                       # What write queue length does an incoming req see
system.mem_ctrls.wrQLenPdf::58                      0                       # What write queue length does an incoming req see
system.mem_ctrls.wrQLenPdf::59                      0                       # What write queue length does an incoming req see
system.mem_ctrls.wrQLenPdf::60                      0                       # What write queue length does an incoming req see
system.mem_ctrls.wrQLenPdf::61                      0                       # What write queue length does an incoming req see
system.mem_ctrls.wrQLenPdf::62                      0                       # What write queue length does an incoming req see
system.mem_ctrls.wrQLenPdf::63                      0                       # What write queue length does an incoming req see
system.mem_ctrls.bytesPerActivate::samples       576011                       # Bytes accessed per row activation
system.mem_ctrls.bytesPerActivate::mean    126.137258                       # Bytes accessed per row activation
system.mem_ctrls.bytesPerActivate::gmean    92.380481                       # Bytes accessed per row activation
system.mem_ctrls.bytesPerActivate::stdev   156.124521                       # Bytes accessed per row activation
system.mem_ctrls.bytesPerActivate::0-127       397940     69.09%     69.09% # Bytes accessed per row activation
system.mem_ctrls.bytesPerActivate::128-255       116248     20.18%     89.27% # Bytes accessed per row activation
system.mem_ctrls.bytesPerActivate::256-383        25834      4.48%     93.75% # Bytes accessed per row activation
system.mem_ctrls.bytesPerActivate::384-511         9703      1.68%     95.44% # Bytes accessed per row activation
system.mem_ctrls.bytesPerActivate::512-639        12756      2.21%     97.65% # Bytes accessed per row activation
system.mem_ctrls.bytesPerActivate::640-767         2081      0.36%     98.01% # Bytes accessed per row activation
system.mem_ctrls.bytesPerActivate::768-895         1802      0.31%     98.33% # Bytes accessed per row activation
system.mem_ctrls.bytesPerActivate::896-1023         1359      0.24%     98.56% # Bytes accessed per row activation
system.mem_ctrls.bytesPerActivate::1024-1151         8288      1.44%    100.00% # Bytes accessed per row activation
system.mem_ctrls.bytesPerActivate::total       576011                       # Bytes accessed per row activation
system.mem_ctrls.rdPerTurnAround::samples        22337                       # Reads before turning the bus around for writes
system.mem_ctrls.rdPerTurnAround::mean      33.447956                       # Reads before turning the bus around for writes
system.mem_ctrls.rdPerTurnAround::gmean     25.511375                       # Reads before turning the bus around for writes
system.mem_ctrls.rdPerTurnAround::stdev    136.052018                       # Reads before turning the bus around for writes
system.mem_ctrls.rdPerTurnAround::0-511         22296     99.82%     99.82% # Reads before turning the bus around for writes
system.mem_ctrls.rdPerTurnAround::512-1023           31      0.14%     99.96% # Reads before turning the bus around for writes
system.mem_ctrls.rdPerTurnAround::1024-1535            4      0.02%     99.97% # Reads before turning the bus around for writes
system.mem_ctrls.rdPerTurnAround::5632-6143            2      0.01%     99.98% # Reads before turning the bus around for writes
system.mem_ctrls.rdPerTurnAround::7168-7679            2      0.01%     99.99% # Reads before turning the bus around for writes
system.mem_ctrls.rdPerTurnAround::8192-8703            1      0.00%    100.00% # Reads before turning the bus around for writes
system.mem_ctrls.rdPerTurnAround::11264-11775            1      0.00%    100.00% # Reads before turning the bus around for writes
system.mem_ctrls.rdPerTurnAround::total         22337                       # Reads before turning the bus around for writes
system.mem_ctrls.wrPerTurnAround::samples        22337                       # Writes before turning the bus around for reads
system.mem_ctrls.wrPerTurnAround::mean      17.375700                       # Writes before turning the bus around for reads
system.mem_ctrls.wrPerTurnAround::gmean     17.349893                       # Writes before turning the bus around for reads
system.mem_ctrls.wrPerTurnAround::stdev      0.934723                       # Writes before turning the bus around for reads
system.mem_ctrls.wrPerTurnAround::16             6767     30.30%     30.30% # Writes before turning the bus around for reads
system.mem_ctrls.wrPerTurnAround::17              778      3.48%     33.78% # Writes before turning the bus around for reads
system.mem_ctrls.wrPerTurnAround::18            14429     64.60%     98.37% # Writes before turning the bus around for reads
system.mem_ctrls.wrPerTurnAround::19              359      1.61%     99.98% # Writes before turning the bus around for reads
system.mem_ctrls.wrPerTurnAround::20                4      0.02%    100.00% # Writes before turning the bus around for reads
system.mem_ctrls.wrPerTurnAround::total         22337                       # Writes before turning the bus around for reads
system.mem_ctrls.totQLat                  10990921750                       # Total ticks spent queuing
system.mem_ctrls.totMemAccLat             24999721750                       # Total ticks spent from burst creation until serviced by the DRAM
system.mem_ctrls.totBusLat                 3735680000                       # Total ticks spent in databus transfers
system.mem_ctrls.avgQLat                     14710.74                       # Average queueing delay per DRAM burst
system.mem_ctrls.avgBusLat                    5000.00                       # Average bus latency per DRAM burst
system.mem_ctrls.avgMemAccLat                33460.74                       # Average memory access latency per DRAM burst
system.mem_ctrls.avgRdBW                        45.10                       # Average DRAM read bandwidth in MiByte/s
system.mem_ctrls.avgWrBW                        23.43                       # Average achieved write bandwidth in MiByte/s
system.mem_ctrls.avgRdBWSys                     45.18                       # Average system read bandwidth in MiByte/s
system.mem_ctrls.avgWrBWSys                     23.43                       # Average system write bandwidth in MiByte/s
system.mem_ctrls.peakBW                      12800.00                       # Theoretical peak bandwidth in MiByte/s
system.mem_ctrls.busUtil                         0.54                       # Data bus utilization in percentage
system.mem_ctrls.busUtilRead                     0.35                       # Data bus utilization in percentage for reads
system.mem_ctrls.busUtilWrite                    0.18                       # Data bus utilization in percentage for writes
system.mem_ctrls.avgRdQLen                       1.00                       # Average read queue length when enqueuing
system.mem_ctrls.avgWrQLen                      24.87                       # Average write queue length when enqueuing
system.mem_ctrls.readRowHits                   355181                       # Number of row buffer hits during reads
system.mem_ctrls.writeRowHits                  204065                       # Number of row buffer hits during writes
system.mem_ctrls.readRowHitRate                 47.54                       # Row buffer hit rate for reads
system.mem_ctrls.writeRowHitRate                52.58                       # Row buffer hit rate for writes
system.mem_ctrls.avgGap                     932795.78                       # Average gap between requests
system.mem_ctrls.pageHitRate                    49.26                       # Row buffer hit rate, read and write combined
system.mem_ctrls_0.actEnergy               2145278520                       # Energy for activate commands per rank (pJ)
system.mem_ctrls_0.preEnergy               1170538875                       # Energy for precharge commands per rank (pJ)
system.mem_ctrls_0.readEnergy              2870953800                       # Energy for read commands per rank (pJ)
system.mem_ctrls_0.writeEnergy             1249668000                       # Energy for write commands per rank (pJ)
system.mem_ctrls_0.refreshEnergy          69254683680                       # Energy for refresh commands per rank (pJ)
system.mem_ctrls_0.actBackEnergy         225759052125                       # Energy for active background per rank (pJ)
system.mem_ctrls_0.preBackEnergy         438155463000                       # Energy for precharge background per rank (pJ)
system.mem_ctrls_0.totalEnergy           740605638000                       # Total energy per rank (pJ)
system.mem_ctrls_0.averagePower            698.476208                       # Core power per rank (mW)
system.mem_ctrls_0.memoryStateTime::IDLE 727551111500                       # Time in different power states
system.mem_ctrls_0.memoryStateTime::REF   35406280000                       # Time in different power states
system.mem_ctrls_0.memoryStateTime::PRE_PDN            0                       # Time in different power states
system.mem_ctrls_0.memoryStateTime::ACT  297358821000                       # Time in different power states
system.mem_ctrls_0.memoryStateTime::ACT_PDN            0                       # Time in different power states
system.mem_ctrls_1.actEnergy               2209364640                       # Energy for activate commands per rank (pJ)
system.mem_ctrls_1.preEnergy               1205506500                       # Energy for precharge commands per rank (pJ)
system.mem_ctrls_1.readEnergy              2956707000                       # Energy for read commands per rank (pJ)
system.mem_ctrls_1.writeEnergy             1265356080                       # Energy for write commands per rank (pJ)
system.mem_ctrls_1.refreshEnergy          69254683680                       # Energy for refresh commands per rank (pJ)
system.mem_ctrls_1.actBackEnergy         228158896905                       # Energy for active background per rank (pJ)
system.mem_ctrls_1.preBackEnergy         436050336000                       # Energy for precharge background per rank (pJ)
system.mem_ctrls_1.totalEnergy           741100850805                       # Total energy per rank (pJ)
system.mem_ctrls_1.averagePower            698.943251                       # Core power per rank (mW)
system.mem_ctrls_1.memoryStateTime::IDLE 724022924250                       # Time in different power states
system.mem_ctrls_1.memoryStateTime::REF   35406280000                       # Time in different power states
system.mem_ctrls_1.memoryStateTime::PRE_PDN            0                       # Time in different power states
system.mem_ctrls_1.memoryStateTime::ACT  300887008250                       # Time in different power states
system.mem_ctrls_1.memoryStateTime::ACT_PDN            0                       # Time in different power states
system.cpu_voltage_domain.voltage                   1                       # Voltage in Volts
system.cpu_clk_domain.clock                       500                       # Clock period in ticks
system.cpu.apic_clk_domain.clock                 8000                       # Clock period in ticks
system.cpu.workload.num_syscalls                   86                       # Number of system calls
system.cpu.numCycles                       2120638655                       # number of cpu cycles simulated
system.cpu.numWorkItemsStarted                      0                       # number of work items this cpu started
system.cpu.numWorkItemsCompleted                    0                       # number of work items this cpu completed
system.cpu.committedInsts                   500000001                       # Number of instructions committed
system.cpu.committedOps                     730450447                       # Number of ops (including micro ops) committed
system.cpu.num_int_alu_accesses             729688907                       # Number of integer alu accesses
system.cpu.num_fp_alu_accesses                    663                       # Number of float alu accesses
system.cpu.num_func_calls                     1453961                       # number of times a function call or return occured
system.cpu.num_conditional_control_insts     31770496                       # number of instructions that are conditional controls
system.cpu.num_int_insts                    729688907                       # number of integer instructions
system.cpu.num_fp_insts                           663                       # number of float instructions
system.cpu.num_int_register_reads          1698743410                       # number of times the integer registers were read
system.cpu.num_int_register_writes          621892952                       # number of times the integer registers were written
system.cpu.num_fp_register_reads                 1009                       # number of times the floating registers were read
system.cpu.num_fp_register_writes                 429                       # number of times the floating registers were written
system.cpu.num_cc_register_reads            180840558                       # number of times the CC registers were read
system.cpu.num_cc_register_writes           276245127                       # number of times the CC registers were written
system.cpu.num_mem_refs                     295985459                       # number of memory refs
system.cpu.num_load_insts                   225946750                       # Number of load instructions
system.cpu.num_store_insts                   70038709                       # Number of store instructions
system.cpu.num_idle_cycles                          0                       # Number of idle cycles
system.cpu.num_busy_cycles                 2120638655                       # Number of busy cycles
system.cpu.not_idle_fraction                        1                       # Percentage of non-idle cycles
system.cpu.idle_fraction                            0                       # Percentage of idle cycles
system.cpu.Branches                          37843296                       # Number of branches fetched
system.cpu.op_class::No_OpClass                 94739      0.01%      0.01% # Class of executed instruction
system.cpu.op_class::IntAlu                 434349070     59.46%     59.48% # Class of executed instruction
system.cpu.op_class::IntMult                    20662      0.00%     59.48% # Class of executed instruction
system.cpu.op_class::IntDiv                       119      0.00%     59.48% # Class of executed instruction
system.cpu.op_class::FloatAdd                     398      0.00%     59.48% # Class of executed instruction
system.cpu.op_class::FloatCmp                       0      0.00%     59.48% # Class of executed instruction
system.cpu.op_class::FloatCvt                       0      0.00%     59.48% # Class of executed instruction
system.cpu.op_class::FloatMult                      0      0.00%     59.48% # Class of executed instruction
system.cpu.op_class::FloatDiv                       0      0.00%     59.48% # Class of executed instruction
system.cpu.op_class::FloatSqrt                      0      0.00%     59.48% # Class of executed instruction
system.cpu.op_class::SimdAdd                        0      0.00%     59.48% # Class of executed instruction
system.cpu.op_class::SimdAddAcc                     0      0.00%     59.48% # Class of executed instruction
system.cpu.op_class::SimdAlu                        0      0.00%     59.48% # Class of executed instruction
system.cpu.op_class::SimdCmp                        0      0.00%     59.48% # Class of executed instruction
system.cpu.op_class::SimdCvt                        0      0.00%     59.48% # Class of executed instruction
system.cpu.op_class::SimdMisc                       0      0.00%     59.48% # Class of executed instruction
system.cpu.op_class::SimdMult                       0      0.00%     59.48% # Class of executed instruction
system.cpu.op_class::SimdMultAcc                    0      0.00%     59.48% # Class of executed instruction
system.cpu.op_class::SimdShift                      0      0.00%     59.48% # Class of executed instruction
system.cpu.op_class::SimdShiftAcc                   0      0.00%     59.48% # Class of executed instruction
system.cpu.op_class::SimdSqrt                       0      0.00%     59.48% # Class of executed instruction
system.cpu.op_class::SimdFloatAdd                   0      0.00%     59.48% # Class of executed instruction
system.cpu.op_class::SimdFloatAlu                   0      0.00%     59.48% # Class of executed instruction
system.cpu.op_class::SimdFloatCmp                   0      0.00%     59.48% # Class of executed instruction
system.cpu.op_class::SimdFloatCvt                   0      0.00%     59.48% # Class of executed instruction
system.cpu.op_class::SimdFloatDiv                   0      0.00%     59.48% # Class of executed instruction
system.cpu.op_class::SimdFloatMisc                  0      0.00%     59.48% # Class of executed instruction
system.cpu.op_class::SimdFloatMult                  0      0.00%     59.48% # Class of executed instruction
system.cpu.op_class::SimdFloatMultAcc               0      0.00%     59.48% # Class of executed instruction
system.cpu.op_class::SimdFloatSqrt                  0      0.00%     59.48% # Class of executed instruction
system.cpu.op_class::MemRead                225946750     30.93%     90.41% # Class of executed instruction
system.cpu.op_class::MemWrite                70038709      9.59%    100.00% # Class of executed instruction
system.cpu.op_class::IprAccess                      0      0.00%    100.00% # Class of executed instruction
system.cpu.op_class::InstPrefetch                   0      0.00%    100.00% # Class of executed instruction
system.cpu.op_class::total                  730450447                       # Class of executed instruction
system.cpu.dcache.tags.replacements           1964729                       # number of replacements
system.cpu.dcache.tags.tagsinuse          2042.199855                       # Cycle average of tags in use
system.cpu.dcache.tags.total_refs           294018690                       # Total number of references to valid blocks.
system.cpu.dcache.tags.sampled_refs           1966777                       # Sample count of references to valid blocks.
system.cpu.dcache.tags.avg_refs            149.492642                       # Average number of references to valid blocks.
system.cpu.dcache.tags.warmup_cycle        3523771500                       # Cycle when the warmup percentage was hit.
system.cpu.dcache.tags.occ_blocks::cpu.data  2042.199855                       # Average occupied blocks per requestor
system.cpu.dcache.tags.occ_percent::cpu.data     0.997168                       # Average percentage of cache occupancy
system.cpu.dcache.tags.occ_percent::total     0.997168                       # Average percentage of cache occupancy
system.cpu.dcache.tags.occ_task_id_blocks::1024         2048                       # Occupied blocks per task id
system.cpu.dcache.tags.age_task_id_blocks_1024::1            2                       # Occupied blocks per task id
system.cpu.dcache.tags.age_task_id_blocks_1024::2           16                       # Occupied blocks per task id
system.cpu.dcache.tags.age_task_id_blocks_1024::3         1557                       # Occupied blocks per task id
system.cpu.dcache.tags.age_task_id_blocks_1024::4          473                       # Occupied blocks per task id
system.cpu.dcache.tags.occ_task_id_percent::1024            1                       # Percentage of cache occupancy per task id
system.cpu.dcache.tags.tag_accesses        1185908645                       # Number of tag accesses
system.cpu.dcache.tags.data_accesses       1185908645                       # Number of data accesses
system.cpu.dcache.ReadReq_hits::cpu.data    224555946                       # number of ReadReq hits
system.cpu.dcache.ReadReq_hits::total       224555946                       # number of ReadReq hits
system.cpu.dcache.WriteReq_hits::cpu.data     69462744                       # number of WriteReq hits
system.cpu.dcache.WriteReq_hits::total       69462744                       # number of WriteReq hits
system.cpu.dcache.demand_hits::cpu.data     294018690                       # number of demand (read+write) hits
system.cpu.dcache.demand_hits::total        294018690                       # number of demand (read+write) hits
system.cpu.dcache.overall_hits::cpu.data    294018690                       # number of overall hits
system.cpu.dcache.overall_hits::total       294018690                       # number of overall hits
system.cpu.dcache.ReadReq_misses::cpu.data      1374427                       # number of ReadReq misses
system.cpu.dcache.ReadReq_misses::total       1374427                       # number of ReadReq misses
system.cpu.dcache.WriteReq_misses::cpu.data       575966                       # number of WriteReq misses
system.cpu.dcache.WriteReq_misses::total       575966                       # number of WriteReq misses
system.cpu.dcache.SoftPFReq_misses::cpu.data        16384                       # number of SoftPFReq misses
system.cpu.dcache.SoftPFReq_misses::total        16384                       # number of SoftPFReq misses
system.cpu.dcache.demand_misses::cpu.data      1950393                       # number of demand (read+write) misses
system.cpu.dcache.demand_misses::total        1950393                       # number of demand (read+write) misses
system.cpu.dcache.overall_misses::cpu.data      1966777                       # number of overall misses
system.cpu.dcache.overall_misses::total       1966777                       # number of overall misses
system.cpu.dcache.ReadReq_miss_latency::cpu.data  48191957000                       # number of ReadReq miss cycles
system.cpu.dcache.ReadReq_miss_latency::total  48191957000                       # number of ReadReq miss cycles
system.cpu.dcache.WriteReq_miss_latency::cpu.data  30509029000                       # number of WriteReq miss cycles
system.cpu.dcache.WriteReq_miss_latency::total  30509029000                       # number of WriteReq miss cycles
system.cpu.dcache.demand_miss_latency::cpu.data  78700986000                       # number of demand (read+write) miss cycles
system.cpu.dcache.demand_miss_latency::total  78700986000                       # number of demand (read+write) miss cycles
system.cpu.dcache.overall_miss_latency::cpu.data  78700986000                       # number of overall miss cycles
system.cpu.dcache.overall_miss_latency::total  78700986000                       # number of overall miss cycles
system.cpu.dcache.ReadReq_accesses::cpu.data    225930373                       # number of ReadReq accesses(hits+misses)
system.cpu.dcache.ReadReq_accesses::total    225930373                       # number of ReadReq accesses(hits+misses)
system.cpu.dcache.WriteReq_accesses::cpu.data     70038710                       # number of WriteReq accesses(hits+misses)
system.cpu.dcache.WriteReq_accesses::total     70038710                       # number of WriteReq accesses(hits+misses)
system.cpu.dcache.SoftPFReq_accesses::cpu.data        16384                       # number of SoftPFReq accesses(hits+misses)
system.cpu.dcache.SoftPFReq_accesses::total        16384                       # number of SoftPFReq accesses(hits+misses)
system.cpu.dcache.demand_accesses::cpu.data    295969083                       # number of demand (read+write) accesses
system.cpu.dcache.demand_accesses::total    295969083                       # number of demand (read+write) accesses
system.cpu.dcache.overall_accesses::cpu.data    295985467                       # number of overall (read+write) accesses
system.cpu.dcache.overall_accesses::total    295985467                       # number of overall (read+write) accesses
system.cpu.dcache.ReadReq_miss_rate::cpu.data     0.006083                       # miss rate for ReadReq accesses
system.cpu.dcache.ReadReq_miss_rate::total     0.006083                       # miss rate for ReadReq accesses
system.cpu.dcache.WriteReq_miss_rate::cpu.data     0.008224                       # miss rate for WriteReq accesses
system.cpu.dcache.WriteReq_miss_rate::total     0.008224                       # miss rate for WriteReq accesses
system.cpu.dcache.SoftPFReq_miss_rate::cpu.data            1                       # miss rate for SoftPFReq accesses
system.cpu.dcache.SoftPFReq_miss_rate::total            1                       # miss rate for SoftPFReq accesses
system.cpu.dcache.demand_miss_rate::cpu.data     0.006590                       # miss rate for demand accesses
system.cpu.dcache.demand_miss_rate::total     0.006590                       # miss rate for demand accesses
system.cpu.dcache.overall_miss_rate::cpu.data     0.006645                       # miss rate for overall accesses
system.cpu.dcache.overall_miss_rate::total     0.006645                       # miss rate for overall accesses
system.cpu.dcache.ReadReq_avg_miss_latency::cpu.data 35063.307837                       # average ReadReq miss latency
system.cpu.dcache.ReadReq_avg_miss_latency::total 35063.307837                       # average ReadReq miss latency
system.cpu.dcache.WriteReq_avg_miss_latency::cpu.data 52970.190949                       # average WriteReq miss latency
system.cpu.dcache.WriteReq_avg_miss_latency::total 52970.190949                       # average WriteReq miss latency
system.cpu.dcache.demand_avg_miss_latency::cpu.data 40351.347651                       # average overall miss latency
system.cpu.dcache.demand_avg_miss_latency::total 40351.347651                       # average overall miss latency
system.cpu.dcache.overall_avg_miss_latency::cpu.data 40015.205588                       # average overall miss latency
system.cpu.dcache.overall_avg_miss_latency::total 40015.205588                       # average overall miss latency
system.cpu.dcache.blocked_cycles::no_mshrs       232608                       # number of cycles access was blocked
system.cpu.dcache.blocked_cycles::no_targets            0                       # number of cycles access was blocked
system.cpu.dcache.blocked::no_mshrs              5503                       # number of cycles access was blocked
system.cpu.dcache.blocked::no_targets               0                       # number of cycles access was blocked
system.cpu.dcache.avg_blocked_cycles::no_mshrs    42.269308                       # average number of cycles each access was blocked
system.cpu.dcache.avg_blocked_cycles::no_targets          nan                       # average number of cycles each access was blocked
system.cpu.dcache.fast_writes                       0                       # number of fast writes performed
system.cpu.dcache.cache_copies                      0                       # number of cache copies performed
system.cpu.dcache.writebacks::writebacks       899285                       # number of writebacks
system.cpu.dcache.writebacks::total            899285                       # number of writebacks
system.cpu.dcache.ReadReq_mshr_misses::cpu.data      1374427                       # number of ReadReq MSHR misses
system.cpu.dcache.ReadReq_mshr_misses::total      1374427                       # number of ReadReq MSHR misses
system.cpu.dcache.WriteReq_mshr_misses::cpu.data       575966                       # number of WriteReq MSHR misses
system.cpu.dcache.WriteReq_mshr_misses::total       575966                       # number of WriteReq MSHR misses
system.cpu.dcache.SoftPFReq_mshr_misses::cpu.data        16384                       # number of SoftPFReq MSHR misses
system.cpu.dcache.SoftPFReq_mshr_misses::total        16384                       # number of SoftPFReq MSHR misses
system.cpu.dcache.demand_mshr_misses::cpu.data      1950393                       # number of demand (read+write) MSHR misses
system.cpu.dcache.demand_mshr_misses::total      1950393                       # number of demand (read+write) MSHR misses
system.cpu.dcache.overall_mshr_misses::cpu.data      1966777                       # number of overall MSHR misses
system.cpu.dcache.overall_mshr_misses::total      1966777                       # number of overall MSHR misses
system.cpu.dcache.ReadReq_mshr_miss_latency::cpu.data  46817530000                       # number of ReadReq MSHR miss cycles
system.cpu.dcache.ReadReq_mshr_miss_latency::total  46817530000                       # number of ReadReq MSHR miss cycles
system.cpu.dcache.WriteReq_mshr_miss_latency::cpu.data  29933063000                       # number of WriteReq MSHR miss cycles
system.cpu.dcache.WriteReq_mshr_miss_latency::total  29933063000                       # number of WriteReq MSHR miss cycles
system.cpu.dcache.SoftPFReq_mshr_miss_latency::cpu.data   1282226964                       # number of SoftPFReq MSHR miss cycles
system.cpu.dcache.SoftPFReq_mshr_miss_latency::total   1282226964                       # number of SoftPFReq MSHR miss cycles
system.cpu.dcache.demand_mshr_miss_latency::cpu.data  76750593000                       # number of demand (read+write) MSHR miss cycles
system.cpu.dcache.demand_mshr_miss_latency::total  76750593000                       # number of demand (read+write) MSHR miss cycles
system.cpu.dcache.overall_mshr_miss_latency::cpu.data  78032819964                       # number of overall MSHR miss cycles
system.cpu.dcache.overall_mshr_miss_latency::total  78032819964                       # number of overall MSHR miss cycles
system.cpu.dcache.ReadReq_mshr_miss_rate::cpu.data     0.006083                       # mshr miss rate for ReadReq accesses
system.cpu.dcache.ReadReq_mshr_miss_rate::total     0.006083                       # mshr miss rate for ReadReq accesses
system.cpu.dcache.WriteReq_mshr_miss_rate::cpu.data     0.008224                       # mshr miss rate for WriteReq accesses
system.cpu.dcache.WriteReq_mshr_miss_rate::total     0.008224                       # mshr miss rate for WriteReq accesses
system.cpu.dcache.SoftPFReq_mshr_miss_rate::cpu.data            1                       # mshr miss rate for SoftPFReq accesses
system.cpu.dcache.SoftPFReq_mshr_miss_rate::total            1                       # mshr miss rate for SoftPFReq accesses
system.cpu.dcache.demand_mshr_miss_rate::cpu.data     0.006590                       # mshr miss rate for demand accesses
system.cpu.dcache.demand_mshr_miss_rate::total     0.006590                       # mshr miss rate for demand accesses
system.cpu.dcache.overall_mshr_miss_rate::cpu.data     0.006645                       # mshr miss rate for overall accesses
system.cpu.dcache.overall_mshr_miss_rate::total     0.006645                       # mshr miss rate for overall accesses
system.cpu.dcache.ReadReq_avg_mshr_miss_latency::cpu.data 34063.307837                       # average ReadReq mshr miss latency
system.cpu.dcache.ReadReq_avg_mshr_miss_latency::total 34063.307837                       # average ReadReq mshr miss latency
system.cpu.dcache.WriteReq_avg_mshr_miss_latency::cpu.data 51970.190949                       # average WriteReq mshr miss latency
system.cpu.dcache.WriteReq_avg_mshr_miss_latency::total 51970.190949                       # average WriteReq mshr miss latency
system.cpu.dcache.SoftPFReq_avg_mshr_miss_latency::cpu.data 78260.923096                       # average SoftPFReq mshr miss latency
system.cpu.dcache.SoftPFReq_avg_mshr_miss_latency::total 78260.923096                       # average SoftPFReq mshr miss latency
system.cpu.dcache.demand_avg_mshr_miss_latency::cpu.data 39351.347651                       # average overall mshr miss latency
system.cpu.dcache.demand_avg_mshr_miss_latency::total 39351.347651                       # average overall mshr miss latency
system.cpu.dcache.overall_avg_mshr_miss_latency::cpu.data 39675.479205                       # average overall mshr miss latency
system.cpu.dcache.overall_avg_mshr_miss_latency::total 39675.479205                       # average overall mshr miss latency
system.cpu.dcache.no_allocate_misses                0                       # Number of misses that were no-allocate
system.cpu.dtb_walker_cache.tags.replacements            0                       # number of replacements
system.cpu.dtb_walker_cache.tags.tagsinuse            0                       # Cycle average of tags in use
system.cpu.dtb_walker_cache.tags.total_refs            0                       # Total number of references to valid blocks.
system.cpu.dtb_walker_cache.tags.sampled_refs            0                       # Sample count of references to valid blocks.
system.cpu.dtb_walker_cache.tags.avg_refs          nan                       # Average number of references to valid blocks.
system.cpu.dtb_walker_cache.tags.warmup_cycle            0                       # Cycle when the warmup percentage was hit.
system.cpu.dtb_walker_cache.tags.tag_accesses            0                       # Number of tag accesses
system.cpu.dtb_walker_cache.tags.data_accesses            0                       # Number of data accesses
system.cpu.dtb_walker_cache.blocked_cycles::no_mshrs            0                       # number of cycles access was blocked
system.cpu.dtb_walker_cache.blocked_cycles::no_targets            0                       # number of cycles access was blocked
system.cpu.dtb_walker_cache.blocked::no_mshrs            0                       # number of cycles access was blocked
system.cpu.dtb_walker_cache.blocked::no_targets            0                       # number of cycles access was blocked
system.cpu.dtb_walker_cache.avg_blocked_cycles::no_mshrs          nan                       # average number of cycles each access was blocked
system.cpu.dtb_walker_cache.avg_blocked_cycles::no_targets          nan                       # average number of cycles each access was blocked
system.cpu.dtb_walker_cache.fast_writes             0                       # number of fast writes performed
system.cpu.dtb_walker_cache.cache_copies            0                       # number of cache copies performed
system.cpu.dtb_walker_cache.no_allocate_misses            0                       # Number of misses that were no-allocate
system.cpu.icache.tags.replacements                45                       # number of replacements
system.cpu.icache.tags.tagsinuse           663.637761                       # Cycle average of tags in use
system.cpu.icache.tags.total_refs           687396869                       # Total number of references to valid blocks.
system.cpu.icache.tags.sampled_refs               994                       # Sample count of references to valid blocks.
system.cpu.icache.tags.avg_refs          691546.145875                       # Average number of references to valid blocks.
system.cpu.icache.tags.warmup_cycle                 0                       # Cycle when the warmup percentage was hit.
system.cpu.icache.tags.occ_blocks::cpu.inst   663.637761                       # Average occupied blocks per requestor
system.cpu.icache.tags.occ_percent::cpu.inst     0.324042                       # Average percentage of cache occupancy
system.cpu.icache.tags.occ_percent::total     0.324042                       # Average percentage of cache occupancy
system.cpu.icache.tags.occ_task_id_blocks::1024          949                       # Occupied blocks per task id
system.cpu.icache.tags.age_task_id_blocks_1024::1            7                       # Occupied blocks per task id
system.cpu.icache.tags.age_task_id_blocks_1024::3           25                       # Occupied blocks per task id
system.cpu.icache.tags.age_task_id_blocks_1024::4          917                       # Occupied blocks per task id
system.cpu.icache.tags.occ_task_id_percent::1024     0.463379                       # Percentage of cache occupancy per task id
system.cpu.icache.tags.tag_accesses        1374796720                       # Number of tag accesses
system.cpu.icache.tags.data_accesses       1374796720                       # Number of data accesses
system.cpu.icache.ReadReq_hits::cpu.inst    687396869                       # number of ReadReq hits
system.cpu.icache.ReadReq_hits::total       687396869                       # number of ReadReq hits
system.cpu.icache.demand_hits::cpu.inst     687396869                       # number of demand (read+write) hits
system.cpu.icache.demand_hits::total        687396869                       # number of demand (read+write) hits
system.cpu.icache.overall_hits::cpu.inst    687396869                       # number of overall hits
system.cpu.icache.overall_hits::total       687396869                       # number of overall hits
system.cpu.icache.ReadReq_misses::cpu.inst          994                       # number of ReadReq misses
system.cpu.icache.ReadReq_misses::total           994                       # number of ReadReq misses
system.cpu.icache.demand_misses::cpu.inst          994                       # number of demand (read+write) misses
system.cpu.icache.demand_misses::total            994                       # number of demand (read+write) misses
system.cpu.icache.overall_misses::cpu.inst          994                       # number of overall misses
system.cpu.icache.overall_misses::total           994                       # number of overall misses
system.cpu.icache.ReadReq_miss_latency::cpu.inst     78092500                       # number of ReadReq miss cycles
system.cpu.icache.ReadReq_miss_latency::total     78092500                       # number of ReadReq miss cycles
system.cpu.icache.demand_miss_latency::cpu.inst     78092500                       # number of demand (read+write) miss cycles
system.cpu.icache.demand_miss_latency::total     78092500                       # number of demand (read+write) miss cycles
system.cpu.icache.overall_miss_latency::cpu.inst     78092500                       # number of overall miss cycles
system.cpu.icache.overall_miss_latency::total     78092500                       # number of overall miss cycles
system.cpu.icache.ReadReq_accesses::cpu.inst    687397863                       # number of ReadReq accesses(hits+misses)
system.cpu.icache.ReadReq_accesses::total    687397863                       # number of ReadReq accesses(hits+misses)
system.cpu.icache.demand_accesses::cpu.inst    687397863                       # number of demand (read+write) accesses
system.cpu.icache.demand_accesses::total    687397863                       # number of demand (read+write) accesses
system.cpu.icache.overall_accesses::cpu.inst    687397863                       # number of overall (read+write) accesses
system.cpu.icache.overall_accesses::total    687397863                       # number of overall (read+write) accesses
system.cpu.icache.ReadReq_miss_rate::cpu.inst     0.000001                       # miss rate for ReadReq accesses
system.cpu.icache.ReadReq_miss_rate::total     0.000001                       # miss rate for ReadReq accesses
system.cpu.icache.demand_miss_rate::cpu.inst     0.000001                       # miss rate for demand accesses
system.cpu.icache.demand_miss_rate::total     0.000001                       # miss rate for demand accesses
system.cpu.icache.overall_miss_rate::cpu.inst     0.000001                       # miss rate for overall accesses
system.cpu.icache.overall_miss_rate::total     0.000001                       # miss rate for overall accesses
system.cpu.icache.ReadReq_avg_miss_latency::cpu.inst 78563.883300                       # average ReadReq miss latency
system.cpu.icache.ReadReq_avg_miss_latency::total 78563.883300                       # average ReadReq miss latency
system.cpu.icache.demand_avg_miss_latency::cpu.inst 78563.883300                       # average overall miss latency
system.cpu.icache.demand_avg_miss_latency::total 78563.883300                       # average overall miss latency
system.cpu.icache.overall_avg_miss_latency::cpu.inst 78563.883300                       # average overall miss latency
system.cpu.icache.overall_avg_miss_latency::total 78563.883300                       # average overall miss latency
system.cpu.icache.blocked_cycles::no_mshrs            0                       # number of cycles access was blocked
system.cpu.icache.blocked_cycles::no_targets            0                       # number of cycles access was blocked
system.cpu.icache.blocked::no_mshrs                 0                       # number of cycles access was blocked
system.cpu.icache.blocked::no_targets               0                       # number of cycles access was blocked
system.cpu.icache.avg_blocked_cycles::no_mshrs          nan                       # average number of cycles each access was blocked
system.cpu.icache.avg_blocked_cycles::no_targets          nan                       # average number of cycles each access was blocked
system.cpu.icache.fast_writes                       0                       # number of fast writes performed
system.cpu.icache.cache_copies                      0                       # number of cache copies performed
system.cpu.icache.writebacks::writebacks           45                       # number of writebacks
system.cpu.icache.writebacks::total                45                       # number of writebacks
system.cpu.icache.ReadReq_mshr_misses::cpu.inst          994                       # number of ReadReq MSHR misses
system.cpu.icache.ReadReq_mshr_misses::total          994                       # number of ReadReq MSHR misses
system.cpu.icache.demand_mshr_misses::cpu.inst          994                       # number of demand (read+write) MSHR misses
system.cpu.icache.demand_mshr_misses::total          994                       # number of demand (read+write) MSHR misses
system.cpu.icache.overall_mshr_misses::cpu.inst          994                       # number of overall MSHR misses
system.cpu.icache.overall_mshr_misses::total          994                       # number of overall MSHR misses
system.cpu.icache.ReadReq_mshr_miss_latency::cpu.inst     77098500                       # number of ReadReq MSHR miss cycles
system.cpu.icache.ReadReq_mshr_miss_latency::total     77098500                       # number of ReadReq MSHR miss cycles
system.cpu.icache.demand_mshr_miss_latency::cpu.inst     77098500                       # number of demand (read+write) MSHR miss cycles
system.cpu.icache.demand_mshr_miss_latency::total     77098500                       # number of demand (read+write) MSHR miss cycles
system.cpu.icache.overall_mshr_miss_latency::cpu.inst     77098500                       # number of overall MSHR miss cycles
system.cpu.icache.overall_mshr_miss_latency::total     77098500                       # number of overall MSHR miss cycles
system.cpu.icache.ReadReq_mshr_miss_rate::cpu.inst     0.000001                       # mshr miss rate for ReadReq accesses
system.cpu.icache.ReadReq_mshr_miss_rate::total     0.000001                       # mshr miss rate for ReadReq accesses
system.cpu.icache.demand_mshr_miss_rate::cpu.inst     0.000001                       # mshr miss rate for demand accesses
system.cpu.icache.demand_mshr_miss_rate::total     0.000001                       # mshr miss rate for demand accesses
system.cpu.icache.overall_mshr_miss_rate::cpu.inst     0.000001                       # mshr miss rate for overall accesses
system.cpu.icache.overall_mshr_miss_rate::total     0.000001                       # mshr miss rate for overall accesses
system.cpu.icache.ReadReq_avg_mshr_miss_latency::cpu.inst 77563.883300                       # average ReadReq mshr miss latency
system.cpu.icache.ReadReq_avg_mshr_miss_latency::total 77563.883300                       # average ReadReq mshr miss latency
system.cpu.icache.demand_avg_mshr_miss_latency::cpu.inst 77563.883300                       # average overall mshr miss latency
system.cpu.icache.demand_avg_mshr_miss_latency::total 77563.883300                       # average overall mshr miss latency
system.cpu.icache.overall_avg_mshr_miss_latency::cpu.inst 77563.883300                       # average overall mshr miss latency
system.cpu.icache.overall_avg_mshr_miss_latency::total 77563.883300                       # average overall mshr miss latency
system.cpu.icache.no_allocate_misses                0                       # Number of misses that were no-allocate
system.cpu.itb_walker_cache.tags.replacements            0                       # number of replacements
system.cpu.itb_walker_cache.tags.tagsinuse            0                       # Cycle average of tags in use
system.cpu.itb_walker_cache.tags.total_refs            0                       # Total number of references to valid blocks.
system.cpu.itb_walker_cache.tags.sampled_refs            0                       # Sample count of references to valid blocks.
system.cpu.itb_walker_cache.tags.avg_refs          nan                       # Average number of references to valid blocks.
system.cpu.itb_walker_cache.tags.warmup_cycle            0                       # Cycle when the warmup percentage was hit.
system.cpu.itb_walker_cache.tags.tag_accesses            0                       # Number of tag accesses
system.cpu.itb_walker_cache.tags.data_accesses            0                       # Number of data accesses
system.cpu.itb_walker_cache.blocked_cycles::no_mshrs            0                       # number of cycles access was blocked
system.cpu.itb_walker_cache.blocked_cycles::no_targets            0                       # number of cycles access was blocked
system.cpu.itb_walker_cache.blocked::no_mshrs            0                       # number of cycles access was blocked
system.cpu.itb_walker_cache.blocked::no_targets            0                       # number of cycles access was blocked
system.cpu.itb_walker_cache.avg_blocked_cycles::no_mshrs          nan                       # average number of cycles each access was blocked
system.cpu.itb_walker_cache.avg_blocked_cycles::no_targets          nan                       # average number of cycles each access was blocked
system.cpu.itb_walker_cache.fast_writes             0                       # number of fast writes performed
system.cpu.itb_walker_cache.cache_copies            0                       # number of cache copies performed
system.cpu.itb_walker_cache.no_allocate_misses            0                       # Number of misses that were no-allocate
system.l2.tags.replacements                    751932                       # number of replacements
system.l2.tags.tagsinuse                 15639.283796                       # Cycle average of tags in use
system.l2.tags.total_refs                     2524582                       # Total number of references to valid blocks.
system.l2.tags.sampled_refs                    767834                       # Sample count of references to valid blocks.
system.l2.tags.avg_refs                      3.287927                       # Average number of references to valid blocks.
system.l2.tags.warmup_cycle              133213134500                       # Cycle when the warmup percentage was hit.
system.l2.tags.occ_blocks::writebacks     7477.402305                       # Average occupied blocks per requestor
system.l2.tags.occ_blocks::cpu.inst          3.918549                       # Average occupied blocks per requestor
system.l2.tags.occ_blocks::cpu.data       8157.962942                       # Average occupied blocks per requestor
system.l2.tags.occ_percent::writebacks       0.456384                       # Average percentage of cache occupancy
system.l2.tags.occ_percent::cpu.inst         0.000239                       # Average percentage of cache occupancy
system.l2.tags.occ_percent::cpu.data         0.497923                       # Average percentage of cache occupancy
system.l2.tags.occ_percent::total            0.954546                       # Average percentage of cache occupancy
system.l2.tags.occ_task_id_blocks::1024         15902                       # Occupied blocks per task id
system.l2.tags.age_task_id_blocks_1024::1            7                       # Occupied blocks per task id
system.l2.tags.age_task_id_blocks_1024::3           44                       # Occupied blocks per task id
system.l2.tags.age_task_id_blocks_1024::4        15851                       # Occupied blocks per task id
system.l2.tags.occ_task_id_percent::1024     0.970581                       # Percentage of cache occupancy per task id
system.l2.tags.tag_accesses                   5276344                       # Number of tag accesses
system.l2.tags.data_accesses                  5276344                       # Number of data accesses
system.l2.WritebackDirty_hits::writebacks       899285                       # number of WritebackDirty hits
system.l2.WritebackDirty_hits::total           899285                       # number of WritebackDirty hits
system.l2.WritebackClean_hits::writebacks           45                       # number of WritebackClean hits
system.l2.WritebackClean_hits::total               45                       # number of WritebackClean hits
system.l2.ReadExReq_hits::cpu.data             268089                       # number of ReadExReq hits
system.l2.ReadExReq_hits::total                268089                       # number of ReadExReq hits
system.l2.ReadCleanReq_hits::cpu.inst               1                       # number of ReadCleanReq hits
system.l2.ReadCleanReq_hits::total                  1                       # number of ReadCleanReq hits
system.l2.ReadSharedReq_hits::cpu.data         951155                       # number of ReadSharedReq hits
system.l2.ReadSharedReq_hits::total            951155                       # number of ReadSharedReq hits
system.l2.demand_hits::cpu.inst                     1                       # number of demand (read+write) hits
system.l2.demand_hits::cpu.data               1219244                       # number of demand (read+write) hits
system.l2.demand_hits::total                  1219245                       # number of demand (read+write) hits
system.l2.overall_hits::cpu.inst                    1                       # number of overall hits
system.l2.overall_hits::cpu.data              1219244                       # number of overall hits
system.l2.overall_hits::total                 1219245                       # number of overall hits
system.l2.ReadExReq_misses::cpu.data           307877                       # number of ReadExReq misses
system.l2.ReadExReq_misses::total              307877                       # number of ReadExReq misses
system.l2.ReadCleanReq_misses::cpu.inst           993                       # number of ReadCleanReq misses
system.l2.ReadCleanReq_misses::total              993                       # number of ReadCleanReq misses
system.l2.ReadSharedReq_misses::cpu.data       439656                       # number of ReadSharedReq misses
system.l2.ReadSharedReq_misses::total          439656                       # number of ReadSharedReq misses
system.l2.demand_misses::cpu.inst                 993                       # number of demand (read+write) misses
system.l2.demand_misses::cpu.data              747533                       # number of demand (read+write) misses
system.l2.demand_misses::total                 748526                       # number of demand (read+write) misses
system.l2.overall_misses::cpu.inst                993                       # number of overall misses
system.l2.overall_misses::cpu.data             747533                       # number of overall misses
system.l2.overall_misses::total                748526                       # number of overall misses
system.l2.ReadExReq_miss_latency::cpu.data  26254178500                       # number of ReadExReq miss cycles
system.l2.ReadExReq_miss_latency::total   26254178500                       # number of ReadExReq miss cycles
system.l2.ReadCleanReq_miss_latency::cpu.inst     75595500                       # number of ReadCleanReq miss cycles
system.l2.ReadCleanReq_miss_latency::total     75595500                       # number of ReadCleanReq miss cycles
system.l2.ReadSharedReq_miss_latency::cpu.data  36026333000                       # number of ReadSharedReq miss cycles
system.l2.ReadSharedReq_miss_latency::total  36026333000                       # number of ReadSharedReq miss cycles
system.l2.demand_miss_latency::cpu.inst      75595500                       # number of demand (read+write) miss cycles
system.l2.demand_miss_latency::cpu.data   62280511500                       # number of demand (read+write) miss cycles
system.l2.demand_miss_latency::total      62356107000                       # number of demand (read+write) miss cycles
system.l2.overall_miss_latency::cpu.inst     75595500                       # number of overall miss cycles
system.l2.overall_miss_latency::cpu.data  62280511500                       # number of overall miss cycles
system.l2.overall_miss_latency::total     62356107000                       # number of overall miss cycles
system.l2.WritebackDirty_accesses::writebacks       899285                       # number of WritebackDirty accesses(hits+misses)
system.l2.WritebackDirty_accesses::total       899285                       # number of WritebackDirty accesses(hits+misses)
system.l2.WritebackClean_accesses::writebacks           45                       # number of WritebackClean accesses(hits+misses)
system.l2.WritebackClean_accesses::total           45                       # number of WritebackClean accesses(hits+misses)
system.l2.ReadExReq_accesses::cpu.data         575966                       # number of ReadExReq accesses(hits+misses)
system.l2.ReadExReq_accesses::total            575966                       # number of ReadExReq accesses(hits+misses)
system.l2.ReadCleanReq_accesses::cpu.inst          994                       # number of ReadCleanReq accesses(hits+misses)
system.l2.ReadCleanReq_accesses::total            994                       # number of ReadCleanReq accesses(hits+misses)
system.l2.ReadSharedReq_accesses::cpu.data      1390811                       # number of ReadSharedReq accesses(hits+misses)
system.l2.ReadSharedReq_accesses::total       1390811                       # number of ReadSharedReq accesses(hits+misses)
system.l2.demand_accesses::cpu.inst               994                       # number of demand (read+write) accesses
system.l2.demand_accesses::cpu.data           1966777                       # number of demand (read+write) accesses
system.l2.demand_accesses::total              1967771                       # number of demand (read+write) accesses
system.l2.overall_accesses::cpu.inst              994                       # number of overall (read+write) accesses
system.l2.overall_accesses::cpu.data          1966777                       # number of overall (read+write) accesses
system.l2.overall_accesses::total             1967771                       # number of overall (read+write) accesses
system.l2.ReadExReq_miss_rate::cpu.data      0.534540                       # miss rate for ReadExReq accesses
system.l2.ReadExReq_miss_rate::total         0.534540                       # miss rate for ReadExReq accesses
system.l2.ReadCleanReq_miss_rate::cpu.inst     0.998994                       # miss rate for ReadCleanReq accesses
system.l2.ReadCleanReq_miss_rate::total      0.998994                       # miss rate for ReadCleanReq accesses
system.l2.ReadSharedReq_miss_rate::cpu.data     0.316115                       # miss rate for ReadSharedReq accesses
system.l2.ReadSharedReq_miss_rate::total     0.316115                       # miss rate for ReadSharedReq accesses
system.l2.demand_miss_rate::cpu.inst         0.998994                       # miss rate for demand accesses
system.l2.demand_miss_rate::cpu.data         0.380080                       # miss rate for demand accesses
system.l2.demand_miss_rate::total            0.380393                       # miss rate for demand accesses
system.l2.overall_miss_rate::cpu.inst        0.998994                       # miss rate for overall accesses
system.l2.overall_miss_rate::cpu.data        0.380080                       # miss rate for overall accesses
system.l2.overall_miss_rate::total           0.380393                       # miss rate for overall accesses
system.l2.ReadExReq_avg_miss_latency::cpu.data 85274.893870                       # average ReadExReq miss latency
system.l2.ReadExReq_avg_miss_latency::total 85274.893870                       # average ReadExReq miss latency
system.l2.ReadCleanReq_avg_miss_latency::cpu.inst 76128.398792                       # average ReadCleanReq miss latency
system.l2.ReadCleanReq_avg_miss_latency::total 76128.398792                       # average ReadCleanReq miss latency
system.l2.ReadSharedReq_avg_miss_latency::cpu.data 81942.093364                       # average ReadSharedReq miss latency
system.l2.ReadSharedReq_avg_miss_latency::total 81942.093364                       # average ReadSharedReq miss latency
system.l2.demand_avg_miss_latency::cpu.inst 76128.398792                       # average overall miss latency
system.l2.demand_avg_miss_latency::cpu.data 83314.731925                       # average overall miss latency
system.l2.demand_avg_miss_latency::total 83305.198483                       # average overall miss latency
system.l2.overall_avg_miss_latency::cpu.inst 76128.398792                       # average overall miss latency
system.l2.overall_avg_miss_latency::cpu.data 83314.731925                       # average overall miss latency
system.l2.overall_avg_miss_latency::total 83305.198483                       # average overall miss latency
system.l2.blocked_cycles::no_mshrs                  0                       # number of cycles access was blocked
system.l2.blocked_cycles::no_targets                0                       # number of cycles access was blocked
system.l2.blocked::no_mshrs                         0                       # number of cycles access was blocked
system.l2.blocked::no_targets                       0                       # number of cycles access was blocked
system.l2.avg_blocked_cycles::no_mshrs            nan                       # average number of cycles each access was blocked
system.l2.avg_blocked_cycles::no_targets          nan                       # average number of cycles each access was blocked
system.l2.fast_writes                               0                       # number of fast writes performed
system.l2.cache_copies                              0                       # number of cache copies performed
system.l2.writebacks::writebacks               388150                       # number of writebacks
system.l2.writebacks::total                    388150                       # number of writebacks
system.l2.CleanEvict_mshr_misses::writebacks        63927                       # number of CleanEvict MSHR misses
system.l2.CleanEvict_mshr_misses::total         63927                       # number of CleanEvict MSHR misses
system.l2.ReadExReq_mshr_misses::cpu.data       307877                       # number of ReadExReq MSHR misses
system.l2.ReadExReq_mshr_misses::total         307877                       # number of ReadExReq MSHR misses
system.l2.ReadCleanReq_mshr_misses::cpu.inst          993                       # number of ReadCleanReq MSHR misses
system.l2.ReadCleanReq_mshr_misses::total          993                       # number of ReadCleanReq MSHR misses
system.l2.ReadSharedReq_mshr_misses::cpu.data       439656                       # number of ReadSharedReq MSHR misses
system.l2.ReadSharedReq_mshr_misses::total       439656                       # number of ReadSharedReq MSHR misses
system.l2.demand_mshr_misses::cpu.inst            993                       # number of demand (read+write) MSHR misses
system.l2.demand_mshr_misses::cpu.data         747533                       # number of demand (read+write) MSHR misses
system.l2.demand_mshr_misses::total            748526                       # number of demand (read+write) MSHR misses
system.l2.overall_mshr_misses::cpu.inst           993                       # number of overall MSHR misses
system.l2.overall_mshr_misses::cpu.data        747533                       # number of overall MSHR misses
system.l2.overall_mshr_misses::total           748526                       # number of overall MSHR misses
system.l2.ReadExReq_mshr_miss_latency::cpu.data  23175408500                       # number of ReadExReq MSHR miss cycles
system.l2.ReadExReq_mshr_miss_latency::total  23175408500                       # number of ReadExReq MSHR miss cycles
system.l2.ReadCleanReq_mshr_miss_latency::cpu.inst     65665500                       # number of ReadCleanReq MSHR miss cycles
system.l2.ReadCleanReq_mshr_miss_latency::total     65665500                       # number of ReadCleanReq MSHR miss cycles
system.l2.ReadSharedReq_mshr_miss_latency::cpu.data  31629773000                       # number of ReadSharedReq MSHR miss cycles
system.l2.ReadSharedReq_mshr_miss_latency::total  31629773000                       # number of ReadSharedReq MSHR miss cycles
system.l2.demand_mshr_miss_latency::cpu.inst     65665500                       # number of demand (read+write) MSHR miss cycles
system.l2.demand_mshr_miss_latency::cpu.data  54805181500                       # number of demand (read+write) MSHR miss cycles
system.l2.demand_mshr_miss_latency::total  54870847000                       # number of demand (read+write) MSHR miss cycles
system.l2.overall_mshr_miss_latency::cpu.inst     65665500                       # number of overall MSHR miss cycles
system.l2.overall_mshr_miss_latency::cpu.data  54805181500                       # number of overall MSHR miss cycles
system.l2.overall_mshr_miss_latency::total  54870847000                       # number of overall MSHR miss cycles
system.l2.CleanEvict_mshr_miss_rate::writebacks          inf                       # mshr miss rate for CleanEvict accesses
system.l2.CleanEvict_mshr_miss_rate::total          inf                       # mshr miss rate for CleanEvict accesses
system.l2.ReadExReq_mshr_miss_rate::cpu.data     0.534540                       # mshr miss rate for ReadExReq accesses
system.l2.ReadExReq_mshr_miss_rate::total     0.534540                       # mshr miss rate for ReadExReq accesses
system.l2.ReadCleanReq_mshr_miss_rate::cpu.inst     0.998994                       # mshr miss rate for ReadCleanReq accesses
system.l2.ReadCleanReq_mshr_miss_rate::total     0.998994                       # mshr miss rate for ReadCleanReq accesses
system.l2.ReadSharedReq_mshr_miss_rate::cpu.data     0.316115                       # mshr miss rate for ReadSharedReq accesses
system.l2.ReadSharedReq_mshr_miss_rate::total     0.316115                       # mshr miss rate for ReadSharedReq accesses
system.l2.demand_mshr_miss_rate::cpu.inst     0.998994                       # mshr miss rate for demand accesses
system.l2.demand_mshr_miss_rate::cpu.data     0.380080                       # mshr miss rate for demand accesses
system.l2.demand_mshr_miss_rate::total       0.380393                       # mshr miss rate for demand accesses
system.l2.overall_mshr_miss_rate::cpu.inst     0.998994                       # mshr miss rate for overall accesses
system.l2.overall_mshr_miss_rate::cpu.data     0.380080                       # mshr miss rate for overall accesses
system.l2.overall_mshr_miss_rate::total      0.380393                       # mshr miss rate for overall accesses
system.l2.ReadExReq_avg_mshr_miss_latency::cpu.data 75274.893870                       # average ReadExReq mshr miss latency
system.l2.ReadExReq_avg_mshr_miss_latency::total 75274.893870                       # average ReadExReq mshr miss latency
system.l2.ReadCleanReq_avg_mshr_miss_latency::cpu.inst 66128.398792                       # average ReadCleanReq mshr miss latency
system.l2.ReadCleanReq_avg_mshr_miss_latency::total 66128.398792                       # average ReadCleanReq mshr miss latency
system.l2.ReadSharedReq_avg_mshr_miss_latency::cpu.data 71942.093364                       # average ReadSharedReq mshr miss latency
system.l2.ReadSharedReq_avg_mshr_miss_latency::total 71942.093364                       # average ReadSharedReq mshr miss latency
system.l2.demand_avg_mshr_miss_latency::cpu.inst 66128.398792                       # average overall mshr miss latency
system.l2.demand_avg_mshr_miss_latency::cpu.data 73314.731925                       # average overall mshr miss latency
system.l2.demand_avg_mshr_miss_latency::total 73305.198483                       # average overall mshr miss latency
system.l2.overall_avg_mshr_miss_latency::cpu.inst 66128.398792                       # average overall mshr miss latency
system.l2.overall_avg_mshr_miss_latency::cpu.data 73314.731925                       # average overall mshr miss latency
system.l2.overall_avg_mshr_miss_latency::total 73305.198483                       # average overall mshr miss latency
system.l2.no_allocate_misses                        0                       # Number of misses that were no-allocate
system.membus.trans_dist::ReadResp             440649                       # Transaction distribution
system.membus.trans_dist::WritebackDirty       388150                       # Transaction distribution
system.membus.trans_dist::CleanEvict           343080                       # Transaction distribution
system.membus.trans_dist::ReadExReq            307877                       # Transaction distribution
system.membus.trans_dist::ReadExResp           307877                       # Transaction distribution
system.membus.trans_dist::ReadSharedReq        440649                       # Transaction distribution
system.membus.pkt_count_system.l2.mem_side::system.mem_ctrls.port      2228282                       # Packet count per connected master and slave (bytes)
system.membus.pkt_count_system.l2.mem_side::total      2228282                       # Packet count per connected master and slave (bytes)
system.membus.pkt_count::total                2228282                       # Packet count per connected master and slave (bytes)
system.membus.pkt_size_system.l2.mem_side::system.mem_ctrls.port     72747264                       # Cumulative packet size per connected master and slave (bytes)
system.membus.pkt_size_system.l2.mem_side::total     72747264                       # Cumulative packet size per connected master and slave (bytes)
system.membus.pkt_size::total                72747264                       # Cumulative packet size per connected master and slave (bytes)
system.membus.snoops                                0                       # Total snoops (count)
system.membus.snoop_fanout::samples           1479756                       # Request fanout histogram
system.membus.snoop_fanout::mean                    0                       # Request fanout histogram
system.membus.snoop_fanout::stdev                   0                       # Request fanout histogram
system.membus.snoop_fanout::underflows              0      0.00%      0.00% # Request fanout histogram
system.membus.snoop_fanout::0                 1479756    100.00%    100.00% # Request fanout histogram
system.membus.snoop_fanout::1                       0      0.00%    100.00% # Request fanout histogram
system.membus.snoop_fanout::overflows               0      0.00%    100.00% # Request fanout histogram
system.membus.snoop_fanout::min_value               0                       # Request fanout histogram
system.membus.snoop_fanout::max_value               0                       # Request fanout histogram
system.membus.snoop_fanout::total             1479756                       # Request fanout histogram
system.membus.reqLayer2.occupancy          3040321500                       # Layer occupancy (ticks)
system.membus.reqLayer2.utilization               0.3                       # Layer utilization (%)
system.membus.respLayer1.occupancy         4049614250                       # Layer occupancy (ticks)
system.membus.respLayer1.utilization              0.4                       # Layer utilization (%)
system.tol2bus.snoop_filter.tot_requests      3932545                       # Total number of requests made to the snoop filter.
system.tol2bus.snoop_filter.hit_single_requests      1964774                       # Number of requests hitting in the snoop filter with a single holder of the requested data.
system.tol2bus.snoop_filter.hit_multi_requests            1                       # Number of requests hitting in the snoop filter with multiple (>1) holders of the requested data.
system.tol2bus.snoop_filter.tot_snoops          84629                       # Total number of snoops made to the snoop filter.
system.tol2bus.snoop_filter.hit_single_snoops        84629                       # Number of snoops hitting in the snoop filter with a single holder of the requested data.
system.tol2bus.snoop_filter.hit_multi_snoops            0                       # Number of snoops hitting in the snoop filter with multiple (>1) holders of the requested data.
system.tol2bus.trans_dist::ReadResp           1391805                       # Transaction distribution
system.tol2bus.trans_dist::WritebackDirty      1287435                       # Transaction distribution
system.tol2bus.trans_dist::WritebackClean           45                       # Transaction distribution
system.tol2bus.trans_dist::CleanEvict         1429225                       # Transaction distribution
system.tol2bus.trans_dist::ReadExReq           575966                       # Transaction distribution
system.tol2bus.trans_dist::ReadExResp          575966                       # Transaction distribution
system.tol2bus.trans_dist::ReadCleanReq           994                       # Transaction distribution
system.tol2bus.trans_dist::ReadSharedReq      1390811                       # Transaction distribution
system.tol2bus.pkt_count_system.cpu.icache.mem_side::system.l2.cpu_side         2033                       # Packet count per connected master and slave (bytes)
system.tol2bus.pkt_count_system.cpu.dcache.mem_side::system.l2.cpu_side      5898282                       # Packet count per connected master and slave (bytes)
system.tol2bus.pkt_count::total               5900315                       # Packet count per connected master and slave (bytes)
system.tol2bus.pkt_size_system.cpu.icache.mem_side::system.l2.cpu_side        66496                       # Cumulative packet size per connected master and slave (bytes)
system.tol2bus.pkt_size_system.cpu.dcache.mem_side::system.l2.cpu_side    183427968                       # Cumulative packet size per connected master and slave (bytes)
system.tol2bus.pkt_size::total              183494464                       # Cumulative packet size per connected master and slave (bytes)
system.tol2bus.snoops                          751932                       # Total snoops (count)
system.tol2bus.snoop_fanout::samples          2719703                       # Request fanout histogram
system.tol2bus.snoop_fanout::mean            0.031117                       # Request fanout histogram
system.tol2bus.snoop_fanout::stdev           0.173635                       # Request fanout histogram
system.tol2bus.snoop_fanout::underflows             0      0.00%      0.00% # Request fanout histogram
system.tol2bus.snoop_fanout::0                2635073     96.89%     96.89% # Request fanout histogram
system.tol2bus.snoop_fanout::1                  84630      3.11%    100.00% # Request fanout histogram
system.tol2bus.snoop_fanout::2                      0      0.00%    100.00% # Request fanout histogram
system.tol2bus.snoop_fanout::3                      0      0.00%    100.00% # Request fanout histogram
system.tol2bus.snoop_fanout::4                      0      0.00%    100.00% # Request fanout histogram
system.tol2bus.snoop_fanout::overflows              0      0.00%    100.00% # Request fanout histogram
system.tol2bus.snoop_fanout::min_value              0                       # Request fanout histogram
system.tol2bus.snoop_fanout::max_value              1                       # Request fanout histogram
system.tol2bus.snoop_fanout::total            2719703                       # Request fanout histogram
system.tol2bus.reqLayer0.occupancy         2865602500                       # Layer occupancy (ticks)
system.tol2bus.reqLayer0.utilization              0.3                       # Layer utilization (%)
system.tol2bus.respLayer0.occupancy           1491000                       # Layer occupancy (ticks)
system.tol2bus.respLayer0.utilization             0.0                       # Layer utilization (%)
system.tol2bus.respLayer1.occupancy        2950165500                       # Layer occupancy (ticks)
system.tol2bus.respLayer1.utilization             0.3                       # Layer utilization (%)

---------- End Simulation Statistics   ----------
