
---------- Begin Simulation Statistics ----------
sim_seconds                                  1.443688                       # Number of seconds simulated
sim_ticks                                1443687648500                       # Number of ticks simulated
final_tick                               1443687648500                       # Number of ticks from beginning of simulation (restored from checkpoints and never reset)
sim_freq                                 1000000000000                       # Frequency of simulated ticks
host_inst_rate                                  32457                       # Simulator instruction rate (inst/s)
host_op_rate                                    56884                       # Simulator op (including micro ops) rate (op/s)
host_tick_rate                               93714462                       # Simulator tick rate (ticks/s)
host_mem_usage                                 824856                       # Number of bytes of host memory used
host_seconds                                 15405.17                       # Real time elapsed on the host
sim_insts                                   500000000                       # Number of instructions simulated
sim_ops                                     876313791                       # Number of ops (including micro ops) simulated
system.voltage_domain.voltage                       1                       # Voltage in Volts
system.clk_domain.clock                          1000                       # Clock period in ticks
system.mem_ctrls.bytes_read::cpu.inst           67584                       # Number of bytes read from this memory
system.mem_ctrls.bytes_read::cpu.data       876967680                       # Number of bytes read from this memory
system.mem_ctrls.bytes_read::total          877035264                       # Number of bytes read from this memory
system.mem_ctrls.bytes_inst_read::cpu.inst        67584                       # Number of instructions bytes read from this memory
system.mem_ctrls.bytes_inst_read::total         67584                       # Number of instructions bytes read from this memory
system.mem_ctrls.bytes_written::writebacks    155721472                       # Number of bytes written to this memory
system.mem_ctrls.bytes_written::total       155721472                       # Number of bytes written to this memory
system.mem_ctrls.num_reads::cpu.inst              264                       # Number of read requests responded to by this memory
system.mem_ctrls.num_reads::cpu.data          3425655                       # Number of read requests responded to by this memory
system.mem_ctrls.num_reads::total             3425919                       # Number of read requests responded to by this memory
system.mem_ctrls.num_writes::writebacks        608287                       # Number of write requests responded to by this memory
system.mem_ctrls.num_writes::total             608287                       # Number of write requests responded to by this memory
system.mem_ctrls.bw_read::cpu.inst              46813                       # Total read bandwidth from this memory (bytes/s)
system.mem_ctrls.bw_read::cpu.data          607449735                       # Total read bandwidth from this memory (bytes/s)
system.mem_ctrls.bw_read::total             607496549                       # Total read bandwidth from this memory (bytes/s)
system.mem_ctrls.bw_inst_read::cpu.inst         46813                       # Instruction read bandwidth from this memory (bytes/s)
system.mem_ctrls.bw_inst_read::total            46813                       # Instruction read bandwidth from this memory (bytes/s)
system.mem_ctrls.bw_write::writebacks       107863687                       # Write bandwidth from this memory (bytes/s)
system.mem_ctrls.bw_write::total            107863687                       # Write bandwidth from this memory (bytes/s)
system.mem_ctrls.bw_total::writebacks       107863687                       # Total bandwidth to/from this memory (bytes/s)
system.mem_ctrls.bw_total::cpu.inst             46813                       # Total bandwidth to/from this memory (bytes/s)
system.mem_ctrls.bw_total::cpu.data         607449735                       # Total bandwidth to/from this memory (bytes/s)
system.mem_ctrls.bw_total::total            715360235                       # Total bandwidth to/from this memory (bytes/s)
system.mem_ctrls.readReqs                     3425919                       # Number of read requests accepted
system.mem_ctrls.writeReqs                     608287                       # Number of write requests accepted
system.mem_ctrls.readBursts                  13703676                       # Number of DRAM read bursts, including those serviced by the write queue
system.mem_ctrls.writeBursts                  2433148                       # Number of DRAM write bursts, including those merged in the write queue
system.mem_ctrls.bytesReadDRAM              871465344                       # Total number of bytes read from DRAM
system.mem_ctrls.bytesReadWrQ                 5569920                       # Total number of bytes read from write queue
system.mem_ctrls.bytesWritten               155543424                       # Total number of bytes written to DRAM
system.mem_ctrls.bytesReadSys               877035264                       # Total read bytes from the system interface side
system.mem_ctrls.bytesWrittenSys            155721472                       # Total written bytes from the system interface side
system.mem_ctrls.servicedByWrQ                  87030                       # Number of DRAM read bursts serviced by the write queue
system.mem_ctrls.mergedWrBursts                  2763                       # Number of DRAM write bursts merged with an existing one
system.mem_ctrls.neitherReadNorWriteReqs      2813283                       # Number of requests that are neither read nor write
system.mem_ctrls.perBankRdBursts::0            841347                       # Per bank write bursts
system.mem_ctrls.perBankRdBursts::1            843681                       # Per bank write bursts
system.mem_ctrls.perBankRdBursts::2            848671                       # Per bank write bursts
system.mem_ctrls.perBankRdBursts::3            975392                       # Per bank write bursts
system.mem_ctrls.perBankRdBursts::4            842739                       # Per bank write bursts
system.mem_ctrls.perBankRdBursts::5            842915                       # Per bank write bursts
system.mem_ctrls.perBankRdBursts::6            858417                       # Per bank write bursts
system.mem_ctrls.perBankRdBursts::7            809462                       # Per bank write bursts
system.mem_ctrls.perBankRdBursts::8            801708                       # Per bank write bursts
system.mem_ctrls.perBankRdBursts::9            813783                       # Per bank write bursts
system.mem_ctrls.perBankRdBursts::10           844410                       # Per bank write bursts
system.mem_ctrls.perBankRdBursts::11           824139                       # Per bank write bursts
system.mem_ctrls.perBankRdBursts::12           863068                       # Per bank write bursts
system.mem_ctrls.perBankRdBursts::13           872225                       # Per bank write bursts
system.mem_ctrls.perBankRdBursts::14           877606                       # Per bank write bursts
system.mem_ctrls.perBankRdBursts::15           857083                       # Per bank write bursts
system.mem_ctrls.perBankWrBursts::0            151817                       # Per bank write bursts
system.mem_ctrls.perBankWrBursts::1            153677                       # Per bank write bursts
system.mem_ctrls.perBankWrBursts::2            150743                       # Per bank write bursts
system.mem_ctrls.perBankWrBursts::3            186394                       # Per bank write bursts
system.mem_ctrls.perBankWrBursts::4            165087                       # Per bank write bursts
system.mem_ctrls.perBankWrBursts::5            144292                       # Per bank write bursts
system.mem_ctrls.perBankWrBursts::6            159178                       # Per bank write bursts
system.mem_ctrls.perBankWrBursts::7            142166                       # Per bank write bursts
system.mem_ctrls.perBankWrBursts::8            142081                       # Per bank write bursts
system.mem_ctrls.perBankWrBursts::9            138024                       # Per bank write bursts
system.mem_ctrls.perBankWrBursts::10           142586                       # Per bank write bursts
system.mem_ctrls.perBankWrBursts::11           150635                       # Per bank write bursts
system.mem_ctrls.perBankWrBursts::12           149998                       # Per bank write bursts
system.mem_ctrls.perBankWrBursts::13           152259                       # Per bank write bursts
system.mem_ctrls.perBankWrBursts::14           152402                       # Per bank write bursts
system.mem_ctrls.perBankWrBursts::15           149027                       # Per bank write bursts
system.mem_ctrls.numRdRetry                         0                       # Number of times read queue was full causing retry
system.mem_ctrls.numWrRetry                         0                       # Number of times write queue was full causing retry
system.mem_ctrls.totGap                  1443681876500                       # Total gap between requests
system.mem_ctrls.readPktSize::0                     0                       # Read request sizes (log2)
system.mem_ctrls.readPktSize::1                     0                       # Read request sizes (log2)
system.mem_ctrls.readPktSize::2                     0                       # Read request sizes (log2)
system.mem_ctrls.readPktSize::3                     0                       # Read request sizes (log2)
system.mem_ctrls.readPktSize::4                     0                       # Read request sizes (log2)
system.mem_ctrls.readPktSize::5                     0                       # Read request sizes (log2)
system.mem_ctrls.readPktSize::6              13703676                       # Read request sizes (log2)
system.mem_ctrls.writePktSize::0                    0                       # Write request sizes (log2)
system.mem_ctrls.writePktSize::1                    0                       # Write request sizes (log2)
system.mem_ctrls.writePktSize::2                    0                       # Write request sizes (log2)
system.mem_ctrls.writePktSize::3                    0                       # Write request sizes (log2)
system.mem_ctrls.writePktSize::4                    0                       # Write request sizes (log2)
system.mem_ctrls.writePktSize::5                    0                       # Write request sizes (log2)
system.mem_ctrls.writePktSize::6              2433148                       # Write request sizes (log2)
system.mem_ctrls.rdQLenPdf::0                 3406346                       # What read queue length does an incoming req see
system.mem_ctrls.rdQLenPdf::1                 3403486                       # What read queue length does an incoming req see
system.mem_ctrls.rdQLenPdf::2                 3403446                       # What read queue length does an incoming req see
system.mem_ctrls.rdQLenPdf::3                 3403368                       # What read queue length does an incoming req see
system.mem_ctrls.rdQLenPdf::4                       0                       # What read queue length does an incoming req see
system.mem_ctrls.rdQLenPdf::5                       0                       # What read queue length does an incoming req see
system.mem_ctrls.rdQLenPdf::6                       0                       # What read queue length does an incoming req see
system.mem_ctrls.rdQLenPdf::7                       0                       # What read queue length does an incoming req see
system.mem_ctrls.rdQLenPdf::8                       0                       # What read queue length does an incoming req see
system.mem_ctrls.rdQLenPdf::9                       0                       # What read queue length does an incoming req see
system.mem_ctrls.rdQLenPdf::10                      0                       # What read queue length does an incoming req see
system.mem_ctrls.rdQLenPdf::11                      0                       # What read queue length does an incoming req see
system.mem_ctrls.rdQLenPdf::12                      0                       # What read queue length does an incoming req see
system.mem_ctrls.rdQLenPdf::13                      0                       # What read queue length does an incoming req see
system.mem_ctrls.rdQLenPdf::14                      0                       # What read queue length does an incoming req see
system.mem_ctrls.rdQLenPdf::15                      0                       # What read queue length does an incoming req see
system.mem_ctrls.rdQLenPdf::16                      0                       # What read queue length does an incoming req see
system.mem_ctrls.rdQLenPdf::17                      0                       # What read queue length does an incoming req see
system.mem_ctrls.rdQLenPdf::18                      0                       # What read queue length does an incoming req see
system.mem_ctrls.rdQLenPdf::19                      0                       # What read queue length does an incoming req see
system.mem_ctrls.rdQLenPdf::20                      0                       # What read queue length does an incoming req see
system.mem_ctrls.rdQLenPdf::21                      0                       # What read queue length does an incoming req see
system.mem_ctrls.rdQLenPdf::22                      0                       # What read queue length does an incoming req see
system.mem_ctrls.rdQLenPdf::23                      0                       # What read queue length does an incoming req see
system.mem_ctrls.rdQLenPdf::24                      0                       # What read queue length does an incoming req see
system.mem_ctrls.rdQLenPdf::25                      0                       # What read queue length does an incoming req see
system.mem_ctrls.rdQLenPdf::26                      0                       # What read queue length does an incoming req see
system.mem_ctrls.rdQLenPdf::27                      0                       # What read queue length does an incoming req see
system.mem_ctrls.rdQLenPdf::28                      0                       # What read queue length does an incoming req see
system.mem_ctrls.rdQLenPdf::29                      0                       # What read queue length does an incoming req see
system.mem_ctrls.rdQLenPdf::30                      0                       # What read queue length does an incoming req see
system.mem_ctrls.rdQLenPdf::31                      0                       # What read queue length does an incoming req see
system.mem_ctrls.wrQLenPdf::0                       1                       # What write queue length does an incoming req see
system.mem_ctrls.wrQLenPdf::1                       1                       # What write queue length does an incoming req see
system.mem_ctrls.wrQLenPdf::2                       1                       # What write queue length does an incoming req see
system.mem_ctrls.wrQLenPdf::3                       1                       # What write queue length does an incoming req see
system.mem_ctrls.wrQLenPdf::4                       1                       # What write queue length does an incoming req see
system.mem_ctrls.wrQLenPdf::5                       1                       # What write queue length does an incoming req see
system.mem_ctrls.wrQLenPdf::6                       1                       # What write queue length does an incoming req see
system.mem_ctrls.wrQLenPdf::7                       1                       # What write queue length does an incoming req see
system.mem_ctrls.wrQLenPdf::8                       1                       # What write queue length does an incoming req see
system.mem_ctrls.wrQLenPdf::9                       1                       # What write queue length does an incoming req see
system.mem_ctrls.wrQLenPdf::10                      1                       # What write queue length does an incoming req see
system.mem_ctrls.wrQLenPdf::11                      1                       # What write queue length does an incoming req see
system.mem_ctrls.wrQLenPdf::12                      1                       # What write queue length does an incoming req see
system.mem_ctrls.wrQLenPdf::13                      1                       # What write queue length does an incoming req see
system.mem_ctrls.wrQLenPdf::14                      1                       # What write queue length does an incoming req see
system.mem_ctrls.wrQLenPdf::15                  82795                       # What write queue length does an incoming req see
system.mem_ctrls.wrQLenPdf::16                  84830                       # What write queue length does an incoming req see
system.mem_ctrls.wrQLenPdf::17                  93676                       # What write queue length does an incoming req see
system.mem_ctrls.wrQLenPdf::18                  95547                       # What write queue length does an incoming req see
system.mem_ctrls.wrQLenPdf::19                 129222                       # What write queue length does an incoming req see
system.mem_ctrls.wrQLenPdf::20                 130556                       # What write queue length does an incoming req see
system.mem_ctrls.wrQLenPdf::21                 130589                       # What write queue length does an incoming req see
system.mem_ctrls.wrQLenPdf::22                 130602                       # What write queue length does an incoming req see
system.mem_ctrls.wrQLenPdf::23                 130511                       # What write queue length does an incoming req see
system.mem_ctrls.wrQLenPdf::24                 130504                       # What write queue length does an incoming req see
system.mem_ctrls.wrQLenPdf::25                 130500                       # What write queue length does an incoming req see
system.mem_ctrls.wrQLenPdf::26                 130542                       # What write queue length does an incoming req see
system.mem_ctrls.wrQLenPdf::27                 130555                       # What write queue length does an incoming req see
system.mem_ctrls.wrQLenPdf::28                 130997                       # What write queue length does an incoming req see
system.mem_ctrls.wrQLenPdf::29                 131059                       # What write queue length does an incoming req see
system.mem_ctrls.wrQLenPdf::30                 131000                       # What write queue length does an incoming req see
system.mem_ctrls.wrQLenPdf::31                 131117                       # What write queue length does an incoming req see
system.mem_ctrls.wrQLenPdf::32                 130642                       # What write queue length does an incoming req see
system.mem_ctrls.wrQLenPdf::33                 121704                       # What write queue length does an incoming req see
system.mem_ctrls.wrQLenPdf::34                 119840                       # What write queue length does an incoming req see
system.mem_ctrls.wrQLenPdf::35                   3536                       # What write queue length does an incoming req see
system.mem_ctrls.wrQLenPdf::36                     14                       # What write queue length does an incoming req see
system.mem_ctrls.wrQLenPdf::37                     14                       # What write queue length does an incoming req see
system.mem_ctrls.wrQLenPdf::38                     14                       # What write queue length does an incoming req see
system.mem_ctrls.wrQLenPdf::39                      1                       # What write queue length does an incoming req see
system.mem_ctrls.wrQLenPdf::40                      1                       # What write queue length does an incoming req see
system.mem_ctrls.wrQLenPdf::41                      1                       # What write queue length does an incoming req see
system.mem_ctrls.wrQLenPdf::42                      1                       # What write queue length does an incoming req see
system.mem_ctrls.wrQLenPdf::43                      0                       # What write queue length does an incoming req see
system.mem_ctrls.wrQLenPdf::44                      0                       # What write queue length does an incoming req see
system.mem_ctrls.wrQLenPdf::45                      0                       # What write queue length does an incoming req see
system.mem_ctrls.wrQLenPdf::46                      0                       # What write queue length does an incoming req see
system.mem_ctrls.wrQLenPdf::47                      0                       # What write queue length does an incoming req see
system.mem_ctrls.wrQLenPdf::48                      0                       # What write queue length does an incoming req see
system.mem_ctrls.wrQLenPdf::49                      0                       # What write queue length does an incoming req see
system.mem_ctrls.wrQLenPdf::50                      0                       # What write queue length does an incoming req see
system.mem_ctrls.wrQLenPdf::51                      0                       # What write queue length does an incoming req see
system.mem_ctrls.wrQLenPdf::52                      0                       # What write queue length does an incoming req see
system.mem_ctrls.wrQLenPdf::53                      0                       # What write queue length does an incoming req see
system.mem_ctrls.wrQLenPdf::54                      0                       # What write queue length does an incoming req see
system.mem_ctrls.wrQLenPdf::55                      0                       # What write queue length does an incoming req see
system.mem_ctrls.wrQLenPdf::56                      0                       # What write queue length does an incoming req see
system.mem_ctrls.wrQLenPdf::57                      0                       # What write queue length does an incoming req see
system.mem_ctrls.wrQLenPdf::58                      0                       # What write queue length does an incoming req see
system.mem_ctrls.wrQLenPdf::59                      0                       # What write queue length does an incoming req see
system.mem_ctrls.wrQLenPdf::60                      0                       # What write queue length does an incoming req see
system.mem_ctrls.wrQLenPdf::61                      0                       # What write queue length does an incoming req see
system.mem_ctrls.wrQLenPdf::62                      0                       # What write queue length does an incoming req see
system.mem_ctrls.wrQLenPdf::63                      0                       # What write queue length does an incoming req see
system.mem_ctrls.bytesPerActivate::samples      3649274                       # Bytes accessed per row activation
system.mem_ctrls.bytesPerActivate::mean    281.428242                       # Bytes accessed per row activation
system.mem_ctrls.bytesPerActivate::gmean   263.987614                       # Bytes accessed per row activation
system.mem_ctrls.bytesPerActivate::stdev   132.363398                       # Bytes accessed per row activation
system.mem_ctrls.bytesPerActivate::0-127        75699      2.07%      2.07% # Bytes accessed per row activation
system.mem_ctrls.bytesPerActivate::128-255        80150      2.20%      4.27% # Bytes accessed per row activation
system.mem_ctrls.bytesPerActivate::256-383      3235387     88.66%     92.93% # Bytes accessed per row activation
system.mem_ctrls.bytesPerActivate::384-511        10619      0.29%     93.22% # Bytes accessed per row activation
system.mem_ctrls.bytesPerActivate::512-639       138243      3.79%     97.01% # Bytes accessed per row activation
system.mem_ctrls.bytesPerActivate::640-767         3142      0.09%     97.09% # Bytes accessed per row activation
system.mem_ctrls.bytesPerActivate::768-895        29083      0.80%     97.89% # Bytes accessed per row activation
system.mem_ctrls.bytesPerActivate::896-1023         2431      0.07%     97.96% # Bytes accessed per row activation
system.mem_ctrls.bytesPerActivate::1024-1151        74520      2.04%    100.00% # Bytes accessed per row activation
system.mem_ctrls.bytesPerActivate::total      3649274                       # Bytes accessed per row activation
system.mem_ctrls.rdPerTurnAround::samples       130381                       # Reads before turning the bus around for writes
system.mem_ctrls.rdPerTurnAround::mean     104.437318                       # Reads before turning the bus around for writes
system.mem_ctrls.rdPerTurnAround::stdev    152.458628                       # Reads before turning the bus around for writes
system.mem_ctrls.rdPerTurnAround::0-255        114925     88.15%     88.15% # Reads before turning the bus around for writes
system.mem_ctrls.rdPerTurnAround::256-511        11564      8.87%     97.01% # Reads before turning the bus around for writes
system.mem_ctrls.rdPerTurnAround::512-767         2964      2.27%     99.29% # Reads before turning the bus around for writes
system.mem_ctrls.rdPerTurnAround::768-1023          640      0.49%     99.78% # Reads before turning the bus around for writes
system.mem_ctrls.rdPerTurnAround::1024-1279          194      0.15%     99.93% # Reads before turning the bus around for writes
system.mem_ctrls.rdPerTurnAround::1280-1535           55      0.04%     99.97% # Reads before turning the bus around for writes
system.mem_ctrls.rdPerTurnAround::1536-1791           17      0.01%     99.98% # Reads before turning the bus around for writes
system.mem_ctrls.rdPerTurnAround::1792-2047            8      0.01%     99.99% # Reads before turning the bus around for writes
system.mem_ctrls.rdPerTurnAround::2048-2303            7      0.01%     99.99% # Reads before turning the bus around for writes
system.mem_ctrls.rdPerTurnAround::2304-2559            1      0.00%    100.00% # Reads before turning the bus around for writes
system.mem_ctrls.rdPerTurnAround::2816-3071            1      0.00%    100.00% # Reads before turning the bus around for writes
system.mem_ctrls.rdPerTurnAround::3584-3839            1      0.00%    100.00% # Reads before turning the bus around for writes
system.mem_ctrls.rdPerTurnAround::3840-4095            1      0.00%    100.00% # Reads before turning the bus around for writes
system.mem_ctrls.rdPerTurnAround::5120-5375            1      0.00%    100.00% # Reads before turning the bus around for writes
system.mem_ctrls.rdPerTurnAround::6656-6911            1      0.00%    100.00% # Reads before turning the bus around for writes
system.mem_ctrls.rdPerTurnAround::6912-7167            1      0.00%    100.00% # Reads before turning the bus around for writes
system.mem_ctrls.rdPerTurnAround::total        130381                       # Reads before turning the bus around for writes
system.mem_ctrls.wrPerTurnAround::samples       130381                       # Writes before turning the bus around for reads
system.mem_ctrls.wrPerTurnAround::mean      18.640492                       # Writes before turning the bus around for reads
system.mem_ctrls.wrPerTurnAround::gmean     18.544574                       # Writes before turning the bus around for reads
system.mem_ctrls.wrPerTurnAround::stdev      1.860810                       # Writes before turning the bus around for reads
system.mem_ctrls.wrPerTurnAround::16            38073     29.20%     29.20% # Writes before turning the bus around for reads
system.mem_ctrls.wrPerTurnAround::17             1237      0.95%     30.15% # Writes before turning the bus around for reads
system.mem_ctrls.wrPerTurnAround::18            12313      9.44%     39.59% # Writes before turning the bus around for reads
system.mem_ctrls.wrPerTurnAround::19             2822      2.16%     41.76% # Writes before turning the bus around for reads
system.mem_ctrls.wrPerTurnAround::20            72938     55.94%     97.70% # Writes before turning the bus around for reads
system.mem_ctrls.wrPerTurnAround::21             1915      1.47%     99.17% # Writes before turning the bus around for reads
system.mem_ctrls.wrPerTurnAround::22               86      0.07%     99.24% # Writes before turning the bus around for reads
system.mem_ctrls.wrPerTurnAround::23               18      0.01%     99.25% # Writes before turning the bus around for reads
system.mem_ctrls.wrPerTurnAround::24              935      0.72%     99.97% # Writes before turning the bus around for reads
system.mem_ctrls.wrPerTurnAround::25               18      0.01%     99.98% # Writes before turning the bus around for reads
system.mem_ctrls.wrPerTurnAround::26                1      0.00%     99.98% # Writes before turning the bus around for reads
system.mem_ctrls.wrPerTurnAround::28               23      0.02%    100.00% # Writes before turning the bus around for reads
system.mem_ctrls.wrPerTurnAround::32                1      0.00%    100.00% # Writes before turning the bus around for reads
system.mem_ctrls.wrPerTurnAround::44                1      0.00%    100.00% # Writes before turning the bus around for reads
system.mem_ctrls.wrPerTurnAround::total        130381                       # Writes before turning the bus around for reads
system.mem_ctrls.totQLat                 444152913500                       # Total ticks spent queuing
system.mem_ctrls.totMemAccLat            699465026000                       # Total ticks spent from burst creation until serviced by the DRAM
system.mem_ctrls.totBusLat                68083230000                       # Total ticks spent in databus transfers
system.mem_ctrls.avgQLat                     32618.38                       # Average queueing delay per DRAM burst
system.mem_ctrls.avgBusLat                    5000.00                       # Average bus latency per DRAM burst
system.mem_ctrls.avgMemAccLat                51368.38                       # Average memory access latency per DRAM burst
system.mem_ctrls.avgRdBW                       603.64                       # Average DRAM read bandwidth in MiByte/s
system.mem_ctrls.avgWrBW                       107.74                       # Average achieved write bandwidth in MiByte/s
system.mem_ctrls.avgRdBWSys                    607.50                       # Average system read bandwidth in MiByte/s
system.mem_ctrls.avgWrBWSys                    107.86                       # Average system write bandwidth in MiByte/s
system.mem_ctrls.peakBW                      12800.00                       # Theoretical peak bandwidth in MiByte/s
system.mem_ctrls.busUtil                         5.56                       # Data bus utilization in percentage
system.mem_ctrls.busUtilRead                     4.72                       # Data bus utilization in percentage for reads
system.mem_ctrls.busUtilWrite                    0.84                       # Data bus utilization in percentage for writes
system.mem_ctrls.avgRdQLen                       3.99                       # Average read queue length when enqueuing
system.mem_ctrls.avgWrQLen                      27.43                       # Average write queue length when enqueuing
system.mem_ctrls.readRowHits                 10525895                       # Number of row buffer hits during reads
system.mem_ctrls.writeRowHits                 1871843                       # Number of row buffer hits during writes
system.mem_ctrls.readRowHitRate                 77.30                       # Row buffer hit rate for reads
system.mem_ctrls.writeRowHitRate                77.02                       # Row buffer hit rate for writes
system.mem_ctrls.avgGap                     357860.23                       # Average gap between requests
system.mem_ctrls.pageHitRate                    77.26                       # Row buffer hit rate, read and write combined
system.mem_ctrls_0.actEnergy              13968937080                       # Energy for activate commands per rank (pJ)
system.mem_ctrls_0.preEnergy               7621939875                       # Energy for precharge commands per rank (pJ)
system.mem_ctrls_0.readEnergy             53528467200                       # Energy for read commands per rank (pJ)
system.mem_ctrls_0.writeEnergy             8121733920                       # Energy for write commands per rank (pJ)
system.mem_ctrls_0.refreshEnergy          94294652400                       # Energy for refresh commands per rank (pJ)
system.mem_ctrls_0.actBackEnergy         688185417375                       # Energy for active background per rank (pJ)
system.mem_ctrls_0.preBackEnergy         262541255250                       # Energy for precharge background per rank (pJ)
system.mem_ctrls_0.totalEnergy           1128262403100                       # Total energy per rank (pJ)
system.mem_ctrls_0.averagePower            781.514127                       # Core power per rank (mW)
system.mem_ctrls_0.memoryStateTime::IDLE 432297746250                       # Time in different power states
system.mem_ctrls_0.memoryStateTime::REF   48207640000                       # Time in different power states
system.mem_ctrls_0.memoryStateTime::PRE_PDN            0                       # Time in different power states
system.mem_ctrls_0.memoryStateTime::ACT  963182157500                       # Time in different power states
system.mem_ctrls_0.memoryStateTime::ACT_PDN            0                       # Time in different power states
system.mem_ctrls_1.actEnergy              13619574360                       # Energy for activate commands per rank (pJ)
system.mem_ctrls_1.preEnergy               7431315375                       # Energy for precharge commands per rank (pJ)
system.mem_ctrls_1.readEnergy             52681371600                       # Energy for read commands per rank (pJ)
system.mem_ctrls_1.writeEnergy             7627037760                       # Energy for write commands per rank (pJ)
system.mem_ctrls_1.refreshEnergy          94294652400                       # Energy for refresh commands per rank (pJ)
system.mem_ctrls_1.actBackEnergy         684574213725                       # Energy for active background per rank (pJ)
system.mem_ctrls_1.preBackEnergy         265708977750                       # Energy for precharge background per rank (pJ)
system.mem_ctrls_1.totalEnergy           1125937142970                       # Total energy per rank (pJ)
system.mem_ctrls_1.averagePower            779.903488                       # Core power per rank (mW)
system.mem_ctrls_1.memoryStateTime::IDLE 437486807750                       # Time in different power states
system.mem_ctrls_1.memoryStateTime::REF   48207640000                       # Time in different power states
system.mem_ctrls_1.memoryStateTime::PRE_PDN            0                       # Time in different power states
system.mem_ctrls_1.memoryStateTime::ACT  957993096000                       # Time in different power states
system.mem_ctrls_1.memoryStateTime::ACT_PDN            0                       # Time in different power states
system.cpu_voltage_domain.voltage                   1                       # Voltage in Volts
system.cpu_clk_domain.clock                       500                       # Clock period in ticks
system.cpu.apic_clk_domain.clock                 8000                       # Clock period in ticks
system.cpu.workload.num_syscalls                  168                       # Number of system calls
system.cpu.numCycles                       2887375297                       # number of cpu cycles simulated
system.cpu.numWorkItemsStarted                      0                       # number of work items this cpu started
system.cpu.numWorkItemsCompleted                    0                       # number of work items this cpu completed
system.cpu.committedInsts                   500000000                       # Number of instructions committed
system.cpu.committedOps                     876313791                       # Number of ops (including micro ops) committed
system.cpu.num_int_alu_accesses             872966650                       # Number of integer alu accesses
system.cpu.num_fp_alu_accesses                2882295                       # Number of float alu accesses
system.cpu.num_func_calls                    11025254                       # number of times a function call or return occured
system.cpu.num_conditional_control_insts     75981001                       # number of instructions that are conditional controls
system.cpu.num_int_insts                    872966650                       # number of integer instructions
system.cpu.num_fp_insts                       2882295                       # number of float instructions
system.cpu.num_int_register_reads          1835046799                       # number of times the integer registers were read
system.cpu.num_int_register_writes          703076403                       # number of times the integer registers were written
system.cpu.num_fp_register_reads              4386181                       # number of times the floating registers were read
system.cpu.num_fp_register_writes             2464451                       # number of times the floating registers were written
system.cpu.num_cc_register_reads            441654653                       # number of times the CC registers were read
system.cpu.num_cc_register_writes           253505530                       # number of times the CC registers were written
system.cpu.num_mem_refs                     293763540                       # number of memory refs
system.cpu.num_load_insts                   221284996                       # Number of load instructions
system.cpu.num_store_insts                   72478544                       # Number of store instructions
system.cpu.num_idle_cycles                          0                       # Number of idle cycles
system.cpu.num_busy_cycles                 2887375297                       # Number of busy cycles
system.cpu.not_idle_fraction                        1                       # Percentage of non-idle cycles
system.cpu.idle_fraction                            0                       # Percentage of idle cycles
system.cpu.Branches                          97900991                       # Number of branches fetched
system.cpu.op_class::No_OpClass                939429      0.11%      0.11% # Class of executed instruction
system.cpu.op_class::IntAlu                 578420275     66.01%     66.11% # Class of executed instruction
system.cpu.op_class::IntMult                   907073      0.10%     66.22% # Class of executed instruction
system.cpu.op_class::IntDiv                        42      0.00%     66.22% # Class of executed instruction
system.cpu.op_class::FloatAdd                 2283432      0.26%     66.48% # Class of executed instruction
system.cpu.op_class::FloatCmp                       0      0.00%     66.48% # Class of executed instruction
system.cpu.op_class::FloatCvt                       0      0.00%     66.48% # Class of executed instruction
system.cpu.op_class::FloatMult                      0      0.00%     66.48% # Class of executed instruction
system.cpu.op_class::FloatDiv                       0      0.00%     66.48% # Class of executed instruction
system.cpu.op_class::FloatSqrt                      0      0.00%     66.48% # Class of executed instruction
system.cpu.op_class::SimdAdd                        0      0.00%     66.48% # Class of executed instruction
system.cpu.op_class::SimdAddAcc                     0      0.00%     66.48% # Class of executed instruction
system.cpu.op_class::SimdAlu                        0      0.00%     66.48% # Class of executed instruction
system.cpu.op_class::SimdCmp                        0      0.00%     66.48% # Class of executed instruction
system.cpu.op_class::SimdCvt                        0      0.00%     66.48% # Class of executed instruction
system.cpu.op_class::SimdMisc                       0      0.00%     66.48% # Class of executed instruction
system.cpu.op_class::SimdMult                       0      0.00%     66.48% # Class of executed instruction
system.cpu.op_class::SimdMultAcc                    0      0.00%     66.48% # Class of executed instruction
system.cpu.op_class::SimdShift                      0      0.00%     66.48% # Class of executed instruction
system.cpu.op_class::SimdShiftAcc                   0      0.00%     66.48% # Class of executed instruction
system.cpu.op_class::SimdSqrt                       0      0.00%     66.48% # Class of executed instruction
system.cpu.op_class::SimdFloatAdd                   0      0.00%     66.48% # Class of executed instruction
system.cpu.op_class::SimdFloatAlu                   0      0.00%     66.48% # Class of executed instruction
system.cpu.op_class::SimdFloatCmp                   0      0.00%     66.48% # Class of executed instruction
system.cpu.op_class::SimdFloatCvt                   0      0.00%     66.48% # Class of executed instruction
system.cpu.op_class::SimdFloatDiv                   0      0.00%     66.48% # Class of executed instruction
system.cpu.op_class::SimdFloatMisc                  0      0.00%     66.48% # Class of executed instruction
system.cpu.op_class::SimdFloatMult                  0      0.00%     66.48% # Class of executed instruction
system.cpu.op_class::SimdFloatMultAcc               0      0.00%     66.48% # Class of executed instruction
system.cpu.op_class::SimdFloatSqrt                  0      0.00%     66.48% # Class of executed instruction
system.cpu.op_class::MemRead                221284996     25.25%     91.73% # Class of executed instruction
system.cpu.op_class::MemWrite                72478544      8.27%    100.00% # Class of executed instruction
system.cpu.op_class::IprAccess                      0      0.00%    100.00% # Class of executed instruction
system.cpu.op_class::InstPrefetch                   0      0.00%    100.00% # Class of executed instruction
system.cpu.op_class::total                  876313791                       # Class of executed instruction
system.cpu.dcache.tags.replacements          11315095                       # number of replacements
system.cpu.dcache.tags.tagsinuse           511.847073                       # Cycle average of tags in use
system.cpu.dcache.tags.total_refs           282451373                       # Total number of references to valid blocks.
system.cpu.dcache.tags.sampled_refs          11315607                       # Sample count of references to valid blocks.
system.cpu.dcache.tags.avg_refs             24.961222                       # Average number of references to valid blocks.
system.cpu.dcache.tags.warmup_cycle        1120712500                       # Cycle when the warmup percentage was hit.
system.cpu.dcache.tags.occ_blocks::cpu.data   511.847073                       # Average occupied blocks per requestor
system.cpu.dcache.tags.occ_percent::cpu.data     0.999701                       # Average percentage of cache occupancy
system.cpu.dcache.tags.occ_percent::total     0.999701                       # Average percentage of cache occupancy
system.cpu.dcache.tags.occ_task_id_blocks::1024          512                       # Occupied blocks per task id
system.cpu.dcache.tags.age_task_id_blocks_1024::0            2                       # Occupied blocks per task id
system.cpu.dcache.tags.age_task_id_blocks_1024::1          412                       # Occupied blocks per task id
system.cpu.dcache.tags.age_task_id_blocks_1024::2           98                       # Occupied blocks per task id
system.cpu.dcache.tags.occ_task_id_percent::1024            1                       # Percentage of cache occupancy per task id
system.cpu.dcache.tags.tag_accesses         598849567                       # Number of tag accesses
system.cpu.dcache.tags.data_accesses        598849567                       # Number of data accesses
system.cpu.dcache.ReadReq_hits::cpu.data    210208576                       # number of ReadReq hits
system.cpu.dcache.ReadReq_hits::total       210208576                       # number of ReadReq hits
system.cpu.dcache.WriteReq_hits::cpu.data     72242797                       # number of WriteReq hits
system.cpu.dcache.WriteReq_hits::total       72242797                       # number of WriteReq hits
system.cpu.dcache.demand_hits::cpu.data     282451373                       # number of demand (read+write) hits
system.cpu.dcache.demand_hits::total        282451373                       # number of demand (read+write) hits
system.cpu.dcache.overall_hits::cpu.data    282451373                       # number of overall hits
system.cpu.dcache.overall_hits::total       282451373                       # number of overall hits
system.cpu.dcache.ReadReq_misses::cpu.data     11079860                       # number of ReadReq misses
system.cpu.dcache.ReadReq_misses::total      11079860                       # number of ReadReq misses
system.cpu.dcache.WriteReq_misses::cpu.data       235747                       # number of WriteReq misses
system.cpu.dcache.WriteReq_misses::total       235747                       # number of WriteReq misses
system.cpu.dcache.demand_misses::cpu.data     11315607                       # number of demand (read+write) misses
system.cpu.dcache.demand_misses::total       11315607                       # number of demand (read+write) misses
system.cpu.dcache.overall_misses::cpu.data     11315607                       # number of overall misses
system.cpu.dcache.overall_misses::total      11315607                       # number of overall misses
system.cpu.dcache.ReadReq_miss_latency::cpu.data 474512141500                       # number of ReadReq miss cycles
system.cpu.dcache.ReadReq_miss_latency::total 474512141500                       # number of ReadReq miss cycles
system.cpu.dcache.WriteReq_miss_latency::cpu.data   9325437500                       # number of WriteReq miss cycles
system.cpu.dcache.WriteReq_miss_latency::total   9325437500                       # number of WriteReq miss cycles
system.cpu.dcache.demand_miss_latency::cpu.data 483837579000                       # number of demand (read+write) miss cycles
system.cpu.dcache.demand_miss_latency::total 483837579000                       # number of demand (read+write) miss cycles
system.cpu.dcache.overall_miss_latency::cpu.data 483837579000                       # number of overall miss cycles
system.cpu.dcache.overall_miss_latency::total 483837579000                       # number of overall miss cycles
system.cpu.dcache.ReadReq_accesses::cpu.data    221288436                       # number of ReadReq accesses(hits+misses)
system.cpu.dcache.ReadReq_accesses::total    221288436                       # number of ReadReq accesses(hits+misses)
system.cpu.dcache.WriteReq_accesses::cpu.data     72478544                       # number of WriteReq accesses(hits+misses)
system.cpu.dcache.WriteReq_accesses::total     72478544                       # number of WriteReq accesses(hits+misses)
system.cpu.dcache.demand_accesses::cpu.data    293766980                       # number of demand (read+write) accesses
system.cpu.dcache.demand_accesses::total    293766980                       # number of demand (read+write) accesses
system.cpu.dcache.overall_accesses::cpu.data    293766980                       # number of overall (read+write) accesses
system.cpu.dcache.overall_accesses::total    293766980                       # number of overall (read+write) accesses
system.cpu.dcache.ReadReq_miss_rate::cpu.data     0.050070                       # miss rate for ReadReq accesses
system.cpu.dcache.ReadReq_miss_rate::total     0.050070                       # miss rate for ReadReq accesses
system.cpu.dcache.WriteReq_miss_rate::cpu.data     0.003253                       # miss rate for WriteReq accesses
system.cpu.dcache.WriteReq_miss_rate::total     0.003253                       # miss rate for WriteReq accesses
system.cpu.dcache.demand_miss_rate::cpu.data     0.038519                       # miss rate for demand accesses
system.cpu.dcache.demand_miss_rate::total     0.038519                       # miss rate for demand accesses
system.cpu.dcache.overall_miss_rate::cpu.data     0.038519                       # miss rate for overall accesses
system.cpu.dcache.overall_miss_rate::total     0.038519                       # miss rate for overall accesses
system.cpu.dcache.ReadReq_avg_miss_latency::cpu.data 42826.546680                       # average ReadReq miss latency
system.cpu.dcache.ReadReq_avg_miss_latency::total 42826.546680                       # average ReadReq miss latency
system.cpu.dcache.WriteReq_avg_miss_latency::cpu.data 39556.972093                       # average WriteReq miss latency
system.cpu.dcache.WriteReq_avg_miss_latency::total 39556.972093                       # average WriteReq miss latency
system.cpu.dcache.demand_avg_miss_latency::cpu.data 42758.429044                       # average overall miss latency
system.cpu.dcache.demand_avg_miss_latency::total 42758.429044                       # average overall miss latency
system.cpu.dcache.overall_avg_miss_latency::cpu.data 42758.429044                       # average overall miss latency
system.cpu.dcache.overall_avg_miss_latency::total 42758.429044                       # average overall miss latency
system.cpu.dcache.blocked_cycles::no_mshrs            0                       # number of cycles access was blocked
system.cpu.dcache.blocked_cycles::no_targets            0                       # number of cycles access was blocked
system.cpu.dcache.blocked::no_mshrs                 0                       # number of cycles access was blocked
system.cpu.dcache.blocked::no_targets               0                       # number of cycles access was blocked
system.cpu.dcache.avg_blocked_cycles::no_mshrs          nan                       # average number of cycles each access was blocked
system.cpu.dcache.avg_blocked_cycles::no_targets          nan                       # average number of cycles each access was blocked
system.cpu.dcache.fast_writes                       0                       # number of fast writes performed
system.cpu.dcache.cache_copies                      0                       # number of cache copies performed
system.cpu.dcache.writebacks::writebacks      2624063                       # number of writebacks
system.cpu.dcache.writebacks::total           2624063                       # number of writebacks
system.cpu.dcache.ReadReq_mshr_misses::cpu.data     11079860                       # number of ReadReq MSHR misses
system.cpu.dcache.ReadReq_mshr_misses::total     11079860                       # number of ReadReq MSHR misses
system.cpu.dcache.WriteReq_mshr_misses::cpu.data       235747                       # number of WriteReq MSHR misses
system.cpu.dcache.WriteReq_mshr_misses::total       235747                       # number of WriteReq MSHR misses
system.cpu.dcache.demand_mshr_misses::cpu.data     11315607                       # number of demand (read+write) MSHR misses
system.cpu.dcache.demand_mshr_misses::total     11315607                       # number of demand (read+write) MSHR misses
system.cpu.dcache.overall_mshr_misses::cpu.data     11315607                       # number of overall MSHR misses
system.cpu.dcache.overall_mshr_misses::total     11315607                       # number of overall MSHR misses
system.cpu.dcache.ReadReq_mshr_miss_latency::cpu.data 463432281500                       # number of ReadReq MSHR miss cycles
system.cpu.dcache.ReadReq_mshr_miss_latency::total 463432281500                       # number of ReadReq MSHR miss cycles
system.cpu.dcache.WriteReq_mshr_miss_latency::cpu.data   9089690500                       # number of WriteReq MSHR miss cycles
system.cpu.dcache.WriteReq_mshr_miss_latency::total   9089690500                       # number of WriteReq MSHR miss cycles
system.cpu.dcache.demand_mshr_miss_latency::cpu.data 472521972000                       # number of demand (read+write) MSHR miss cycles
system.cpu.dcache.demand_mshr_miss_latency::total 472521972000                       # number of demand (read+write) MSHR miss cycles
system.cpu.dcache.overall_mshr_miss_latency::cpu.data 472521972000                       # number of overall MSHR miss cycles
system.cpu.dcache.overall_mshr_miss_latency::total 472521972000                       # number of overall MSHR miss cycles
system.cpu.dcache.ReadReq_mshr_miss_rate::cpu.data     0.050070                       # mshr miss rate for ReadReq accesses
system.cpu.dcache.ReadReq_mshr_miss_rate::total     0.050070                       # mshr miss rate for ReadReq accesses
system.cpu.dcache.WriteReq_mshr_miss_rate::cpu.data     0.003253                       # mshr miss rate for WriteReq accesses
system.cpu.dcache.WriteReq_mshr_miss_rate::total     0.003253                       # mshr miss rate for WriteReq accesses
system.cpu.dcache.demand_mshr_miss_rate::cpu.data     0.038519                       # mshr miss rate for demand accesses
system.cpu.dcache.demand_mshr_miss_rate::total     0.038519                       # mshr miss rate for demand accesses
system.cpu.dcache.overall_mshr_miss_rate::cpu.data     0.038519                       # mshr miss rate for overall accesses
system.cpu.dcache.overall_mshr_miss_rate::total     0.038519                       # mshr miss rate for overall accesses
system.cpu.dcache.ReadReq_avg_mshr_miss_latency::cpu.data 41826.546680                       # average ReadReq mshr miss latency
system.cpu.dcache.ReadReq_avg_mshr_miss_latency::total 41826.546680                       # average ReadReq mshr miss latency
system.cpu.dcache.WriteReq_avg_mshr_miss_latency::cpu.data 38556.972093                       # average WriteReq mshr miss latency
system.cpu.dcache.WriteReq_avg_mshr_miss_latency::total 38556.972093                       # average WriteReq mshr miss latency
system.cpu.dcache.demand_avg_mshr_miss_latency::cpu.data 41758.429044                       # average overall mshr miss latency
system.cpu.dcache.demand_avg_mshr_miss_latency::total 41758.429044                       # average overall mshr miss latency
system.cpu.dcache.overall_avg_mshr_miss_latency::cpu.data 41758.429044                       # average overall mshr miss latency
system.cpu.dcache.overall_avg_mshr_miss_latency::total 41758.429044                       # average overall mshr miss latency
system.cpu.dcache.no_allocate_misses                0                       # Number of misses that were no-allocate
system.cpu.dtb_walker_cache.tags.replacements            0                       # number of replacements
system.cpu.dtb_walker_cache.tags.tagsinuse            0                       # Cycle average of tags in use
system.cpu.dtb_walker_cache.tags.total_refs            0                       # Total number of references to valid blocks.
system.cpu.dtb_walker_cache.tags.sampled_refs            0                       # Sample count of references to valid blocks.
system.cpu.dtb_walker_cache.tags.avg_refs          nan                       # Average number of references to valid blocks.
system.cpu.dtb_walker_cache.tags.warmup_cycle            0                       # Cycle when the warmup percentage was hit.
system.cpu.dtb_walker_cache.tags.tag_accesses            0                       # Number of tag accesses
system.cpu.dtb_walker_cache.tags.data_accesses            0                       # Number of data accesses
system.cpu.dtb_walker_cache.blocked_cycles::no_mshrs            0                       # number of cycles access was blocked
system.cpu.dtb_walker_cache.blocked_cycles::no_targets            0                       # number of cycles access was blocked
system.cpu.dtb_walker_cache.blocked::no_mshrs            0                       # number of cycles access was blocked
system.cpu.dtb_walker_cache.blocked::no_targets            0                       # number of cycles access was blocked
system.cpu.dtb_walker_cache.avg_blocked_cycles::no_mshrs          nan                       # average number of cycles each access was blocked
system.cpu.dtb_walker_cache.avg_blocked_cycles::no_targets          nan                       # average number of cycles each access was blocked
system.cpu.dtb_walker_cache.fast_writes             0                       # number of fast writes performed
system.cpu.dtb_walker_cache.cache_copies            0                       # number of cache copies performed
system.cpu.dtb_walker_cache.no_allocate_misses            0                       # Number of misses that were no-allocate
system.cpu.icache.tags.replacements                27                       # number of replacements
system.cpu.icache.tags.tagsinuse           225.606099                       # Cycle average of tags in use
system.cpu.icache.tags.total_refs           677317669                       # Total number of references to valid blocks.
system.cpu.icache.tags.sampled_refs               265                       # Sample count of references to valid blocks.
system.cpu.icache.tags.avg_refs          2555915.732075                       # Average number of references to valid blocks.
system.cpu.icache.tags.warmup_cycle                 0                       # Cycle when the warmup percentage was hit.
system.cpu.icache.tags.occ_blocks::cpu.inst   225.606099                       # Average occupied blocks per requestor
system.cpu.icache.tags.occ_percent::cpu.inst     0.440637                       # Average percentage of cache occupancy
system.cpu.icache.tags.occ_percent::total     0.440637                       # Average percentage of cache occupancy
system.cpu.icache.tags.occ_task_id_blocks::1024          238                       # Occupied blocks per task id
system.cpu.icache.tags.age_task_id_blocks_1024::4          238                       # Occupied blocks per task id
system.cpu.icache.tags.occ_task_id_percent::1024     0.464844                       # Percentage of cache occupancy per task id
system.cpu.icache.tags.tag_accesses        1354636133                       # Number of tag accesses
system.cpu.icache.tags.data_accesses       1354636133                       # Number of data accesses
system.cpu.icache.ReadReq_hits::cpu.inst    677317669                       # number of ReadReq hits
system.cpu.icache.ReadReq_hits::total       677317669                       # number of ReadReq hits
system.cpu.icache.demand_hits::cpu.inst     677317669                       # number of demand (read+write) hits
system.cpu.icache.demand_hits::total        677317669                       # number of demand (read+write) hits
system.cpu.icache.overall_hits::cpu.inst    677317669                       # number of overall hits
system.cpu.icache.overall_hits::total       677317669                       # number of overall hits
system.cpu.icache.ReadReq_misses::cpu.inst          265                       # number of ReadReq misses
system.cpu.icache.ReadReq_misses::total           265                       # number of ReadReq misses
system.cpu.icache.demand_misses::cpu.inst          265                       # number of demand (read+write) misses
system.cpu.icache.demand_misses::total            265                       # number of demand (read+write) misses
system.cpu.icache.overall_misses::cpu.inst          265                       # number of overall misses
system.cpu.icache.overall_misses::total           265                       # number of overall misses
system.cpu.icache.ReadReq_miss_latency::cpu.inst     27530000                       # number of ReadReq miss cycles
system.cpu.icache.ReadReq_miss_latency::total     27530000                       # number of ReadReq miss cycles
system.cpu.icache.demand_miss_latency::cpu.inst     27530000                       # number of demand (read+write) miss cycles
system.cpu.icache.demand_miss_latency::total     27530000                       # number of demand (read+write) miss cycles
system.cpu.icache.overall_miss_latency::cpu.inst     27530000                       # number of overall miss cycles
system.cpu.icache.overall_miss_latency::total     27530000                       # number of overall miss cycles
system.cpu.icache.ReadReq_accesses::cpu.inst    677317934                       # number of ReadReq accesses(hits+misses)
system.cpu.icache.ReadReq_accesses::total    677317934                       # number of ReadReq accesses(hits+misses)
system.cpu.icache.demand_accesses::cpu.inst    677317934                       # number of demand (read+write) accesses
system.cpu.icache.demand_accesses::total    677317934                       # number of demand (read+write) accesses
system.cpu.icache.overall_accesses::cpu.inst    677317934                       # number of overall (read+write) accesses
system.cpu.icache.overall_accesses::total    677317934                       # number of overall (read+write) accesses
system.cpu.icache.ReadReq_miss_rate::cpu.inst     0.000000                       # miss rate for ReadReq accesses
system.cpu.icache.ReadReq_miss_rate::total     0.000000                       # miss rate for ReadReq accesses
system.cpu.icache.demand_miss_rate::cpu.inst     0.000000                       # miss rate for demand accesses
system.cpu.icache.demand_miss_rate::total     0.000000                       # miss rate for demand accesses
system.cpu.icache.overall_miss_rate::cpu.inst     0.000000                       # miss rate for overall accesses
system.cpu.icache.overall_miss_rate::total     0.000000                       # miss rate for overall accesses
system.cpu.icache.ReadReq_avg_miss_latency::cpu.inst 103886.792453                       # average ReadReq miss latency
system.cpu.icache.ReadReq_avg_miss_latency::total 103886.792453                       # average ReadReq miss latency
system.cpu.icache.demand_avg_miss_latency::cpu.inst 103886.792453                       # average overall miss latency
system.cpu.icache.demand_avg_miss_latency::total 103886.792453                       # average overall miss latency
system.cpu.icache.overall_avg_miss_latency::cpu.inst 103886.792453                       # average overall miss latency
system.cpu.icache.overall_avg_miss_latency::total 103886.792453                       # average overall miss latency
system.cpu.icache.blocked_cycles::no_mshrs            0                       # number of cycles access was blocked
system.cpu.icache.blocked_cycles::no_targets            0                       # number of cycles access was blocked
system.cpu.icache.blocked::no_mshrs                 0                       # number of cycles access was blocked
system.cpu.icache.blocked::no_targets               0                       # number of cycles access was blocked
system.cpu.icache.avg_blocked_cycles::no_mshrs          nan                       # average number of cycles each access was blocked
system.cpu.icache.avg_blocked_cycles::no_targets          nan                       # average number of cycles each access was blocked
system.cpu.icache.fast_writes                       0                       # number of fast writes performed
system.cpu.icache.cache_copies                      0                       # number of cache copies performed
system.cpu.icache.writebacks::writebacks           27                       # number of writebacks
system.cpu.icache.writebacks::total                27                       # number of writebacks
system.cpu.icache.ReadReq_mshr_misses::cpu.inst          265                       # number of ReadReq MSHR misses
system.cpu.icache.ReadReq_mshr_misses::total          265                       # number of ReadReq MSHR misses
system.cpu.icache.demand_mshr_misses::cpu.inst          265                       # number of demand (read+write) MSHR misses
system.cpu.icache.demand_mshr_misses::total          265                       # number of demand (read+write) MSHR misses
system.cpu.icache.overall_mshr_misses::cpu.inst          265                       # number of overall MSHR misses
system.cpu.icache.overall_mshr_misses::total          265                       # number of overall MSHR misses
system.cpu.icache.ReadReq_mshr_miss_latency::cpu.inst     27265000                       # number of ReadReq MSHR miss cycles
system.cpu.icache.ReadReq_mshr_miss_latency::total     27265000                       # number of ReadReq MSHR miss cycles
system.cpu.icache.demand_mshr_miss_latency::cpu.inst     27265000                       # number of demand (read+write) MSHR miss cycles
system.cpu.icache.demand_mshr_miss_latency::total     27265000                       # number of demand (read+write) MSHR miss cycles
system.cpu.icache.overall_mshr_miss_latency::cpu.inst     27265000                       # number of overall MSHR miss cycles
system.cpu.icache.overall_mshr_miss_latency::total     27265000                       # number of overall MSHR miss cycles
system.cpu.icache.ReadReq_mshr_miss_rate::cpu.inst     0.000000                       # mshr miss rate for ReadReq accesses
system.cpu.icache.ReadReq_mshr_miss_rate::total     0.000000                       # mshr miss rate for ReadReq accesses
system.cpu.icache.demand_mshr_miss_rate::cpu.inst     0.000000                       # mshr miss rate for demand accesses
system.cpu.icache.demand_mshr_miss_rate::total     0.000000                       # mshr miss rate for demand accesses
system.cpu.icache.overall_mshr_miss_rate::cpu.inst     0.000000                       # mshr miss rate for overall accesses
system.cpu.icache.overall_mshr_miss_rate::total     0.000000                       # mshr miss rate for overall accesses
system.cpu.icache.ReadReq_avg_mshr_miss_latency::cpu.inst 102886.792453                       # average ReadReq mshr miss latency
system.cpu.icache.ReadReq_avg_mshr_miss_latency::total 102886.792453                       # average ReadReq mshr miss latency
system.cpu.icache.demand_avg_mshr_miss_latency::cpu.inst 102886.792453                       # average overall mshr miss latency
system.cpu.icache.demand_avg_mshr_miss_latency::total 102886.792453                       # average overall mshr miss latency
system.cpu.icache.overall_avg_mshr_miss_latency::cpu.inst 102886.792453                       # average overall mshr miss latency
system.cpu.icache.overall_avg_mshr_miss_latency::total 102886.792453                       # average overall mshr miss latency
system.cpu.icache.no_allocate_misses                0                       # Number of misses that were no-allocate
system.cpu.itb_walker_cache.tags.replacements            0                       # number of replacements
system.cpu.itb_walker_cache.tags.tagsinuse            0                       # Cycle average of tags in use
system.cpu.itb_walker_cache.tags.total_refs            0                       # Total number of references to valid blocks.
system.cpu.itb_walker_cache.tags.sampled_refs            0                       # Sample count of references to valid blocks.
system.cpu.itb_walker_cache.tags.avg_refs          nan                       # Average number of references to valid blocks.
system.cpu.itb_walker_cache.tags.warmup_cycle            0                       # Cycle when the warmup percentage was hit.
system.cpu.itb_walker_cache.tags.tag_accesses            0                       # Number of tag accesses
system.cpu.itb_walker_cache.tags.data_accesses            0                       # Number of data accesses
system.cpu.itb_walker_cache.blocked_cycles::no_mshrs            0                       # number of cycles access was blocked
system.cpu.itb_walker_cache.blocked_cycles::no_targets            0                       # number of cycles access was blocked
system.cpu.itb_walker_cache.blocked::no_mshrs            0                       # number of cycles access was blocked
system.cpu.itb_walker_cache.blocked::no_targets            0                       # number of cycles access was blocked
system.cpu.itb_walker_cache.avg_blocked_cycles::no_mshrs          nan                       # average number of cycles each access was blocked
system.cpu.itb_walker_cache.avg_blocked_cycles::no_targets          nan                       # average number of cycles each access was blocked
system.cpu.itb_walker_cache.fast_writes             0                       # number of fast writes performed
system.cpu.itb_walker_cache.cache_copies            0                       # number of cache copies performed
system.cpu.itb_walker_cache.no_allocate_misses            0                       # Number of misses that were no-allocate
system.l2.tags.replacements                   3561431                       # number of replacements
system.l2.tags.tagsinuse                  4022.696275                       # Cycle average of tags in use
system.l2.tags.total_refs                    18063986                       # Total number of references to valid blocks.
system.l2.tags.sampled_refs                   3565506                       # Sample count of references to valid blocks.
system.l2.tags.avg_refs                      5.066318                       # Average number of references to valid blocks.
system.l2.tags.warmup_cycle              322819991500                       # Cycle when the warmup percentage was hit.
system.l2.tags.occ_blocks::writebacks      761.775533                       # Average occupied blocks per requestor
system.l2.tags.occ_blocks::cpu.inst          0.655998                       # Average occupied blocks per requestor
system.l2.tags.occ_blocks::cpu.data       3260.264744                       # Average occupied blocks per requestor
system.l2.tags.occ_percent::writebacks       0.185980                       # Average percentage of cache occupancy
system.l2.tags.occ_percent::cpu.inst         0.000160                       # Average percentage of cache occupancy
system.l2.tags.occ_percent::cpu.data         0.795963                       # Average percentage of cache occupancy
system.l2.tags.occ_percent::total            0.982104                       # Average percentage of cache occupancy
system.l2.tags.occ_task_id_blocks::1024          4075                       # Occupied blocks per task id
system.l2.tags.age_task_id_blocks_1024::1          245                       # Occupied blocks per task id
system.l2.tags.age_task_id_blocks_1024::2         1198                       # Occupied blocks per task id
system.l2.tags.age_task_id_blocks_1024::3         2082                       # Occupied blocks per task id
system.l2.tags.age_task_id_blocks_1024::4          550                       # Occupied blocks per task id
system.l2.tags.occ_task_id_percent::1024     0.994873                       # Percentage of cache occupancy per task id
system.l2.tags.tag_accesses                  26432246                       # Number of tag accesses
system.l2.tags.data_accesses                 26432246                       # Number of data accesses
system.l2.WritebackDirty_hits::writebacks      2624063                       # number of WritebackDirty hits
system.l2.WritebackDirty_hits::total          2624063                       # number of WritebackDirty hits
system.l2.WritebackClean_hits::writebacks           27                       # number of WritebackClean hits
system.l2.WritebackClean_hits::total               27                       # number of WritebackClean hits
system.l2.ReadExReq_hits::cpu.data             165912                       # number of ReadExReq hits
system.l2.ReadExReq_hits::total                165912                       # number of ReadExReq hits
system.l2.ReadCleanReq_hits::cpu.inst               1                       # number of ReadCleanReq hits
system.l2.ReadCleanReq_hits::total                  1                       # number of ReadCleanReq hits
system.l2.ReadSharedReq_hits::cpu.data        7724040                       # number of ReadSharedReq hits
system.l2.ReadSharedReq_hits::total           7724040                       # number of ReadSharedReq hits
system.l2.demand_hits::cpu.inst                     1                       # number of demand (read+write) hits
system.l2.demand_hits::cpu.data               7889952                       # number of demand (read+write) hits
system.l2.demand_hits::total                  7889953                       # number of demand (read+write) hits
system.l2.overall_hits::cpu.inst                    1                       # number of overall hits
system.l2.overall_hits::cpu.data              7889952                       # number of overall hits
system.l2.overall_hits::total                 7889953                       # number of overall hits
system.l2.ReadExReq_misses::cpu.data            69835                       # number of ReadExReq misses
system.l2.ReadExReq_misses::total               69835                       # number of ReadExReq misses
system.l2.ReadCleanReq_misses::cpu.inst           264                       # number of ReadCleanReq misses
system.l2.ReadCleanReq_misses::total              264                       # number of ReadCleanReq misses
system.l2.ReadSharedReq_misses::cpu.data      3355820                       # number of ReadSharedReq misses
system.l2.ReadSharedReq_misses::total         3355820                       # number of ReadSharedReq misses
system.l2.demand_misses::cpu.inst                 264                       # number of demand (read+write) misses
system.l2.demand_misses::cpu.data             3425655                       # number of demand (read+write) misses
system.l2.demand_misses::total                3425919                       # number of demand (read+write) misses
system.l2.overall_misses::cpu.inst                264                       # number of overall misses
system.l2.overall_misses::cpu.data            3425655                       # number of overall misses
system.l2.overall_misses::total               3425919                       # number of overall misses
system.l2.ReadExReq_miss_latency::cpu.data   6993833000                       # number of ReadExReq miss cycles
system.l2.ReadExReq_miss_latency::total    6993833000                       # number of ReadExReq miss cycles
system.l2.ReadCleanReq_miss_latency::cpu.inst     26841000                       # number of ReadCleanReq miss cycles
system.l2.ReadCleanReq_miss_latency::total     26841000                       # number of ReadCleanReq miss cycles
system.l2.ReadSharedReq_miss_latency::cpu.data 365646356500                       # number of ReadSharedReq miss cycles
system.l2.ReadSharedReq_miss_latency::total 365646356500                       # number of ReadSharedReq miss cycles
system.l2.demand_miss_latency::cpu.inst      26841000                       # number of demand (read+write) miss cycles
system.l2.demand_miss_latency::cpu.data  372640189500                       # number of demand (read+write) miss cycles
system.l2.demand_miss_latency::total     372667030500                       # number of demand (read+write) miss cycles
system.l2.overall_miss_latency::cpu.inst     26841000                       # number of overall miss cycles
system.l2.overall_miss_latency::cpu.data 372640189500                       # number of overall miss cycles
system.l2.overall_miss_latency::total    372667030500                       # number of overall miss cycles
system.l2.WritebackDirty_accesses::writebacks      2624063                       # number of WritebackDirty accesses(hits+misses)
system.l2.WritebackDirty_accesses::total      2624063                       # number of WritebackDirty accesses(hits+misses)
system.l2.WritebackClean_accesses::writebacks           27                       # number of WritebackClean accesses(hits+misses)
system.l2.WritebackClean_accesses::total           27                       # number of WritebackClean accesses(hits+misses)
system.l2.ReadExReq_accesses::cpu.data         235747                       # number of ReadExReq accesses(hits+misses)
system.l2.ReadExReq_accesses::total            235747                       # number of ReadExReq accesses(hits+misses)
system.l2.ReadCleanReq_accesses::cpu.inst          265                       # number of ReadCleanReq accesses(hits+misses)
system.l2.ReadCleanReq_accesses::total            265                       # number of ReadCleanReq accesses(hits+misses)
system.l2.ReadSharedReq_accesses::cpu.data     11079860                       # number of ReadSharedReq accesses(hits+misses)
system.l2.ReadSharedReq_accesses::total      11079860                       # number of ReadSharedReq accesses(hits+misses)
system.l2.demand_accesses::cpu.inst               265                       # number of demand (read+write) accesses
system.l2.demand_accesses::cpu.data          11315607                       # number of demand (read+write) accesses
system.l2.demand_accesses::total             11315872                       # number of demand (read+write) accesses
system.l2.overall_accesses::cpu.inst              265                       # number of overall (read+write) accesses
system.l2.overall_accesses::cpu.data         11315607                       # number of overall (read+write) accesses
system.l2.overall_accesses::total            11315872                       # number of overall (read+write) accesses
system.l2.ReadExReq_miss_rate::cpu.data      0.296229                       # miss rate for ReadExReq accesses
system.l2.ReadExReq_miss_rate::total         0.296229                       # miss rate for ReadExReq accesses
system.l2.ReadCleanReq_miss_rate::cpu.inst     0.996226                       # miss rate for ReadCleanReq accesses
system.l2.ReadCleanReq_miss_rate::total      0.996226                       # miss rate for ReadCleanReq accesses
system.l2.ReadSharedReq_miss_rate::cpu.data     0.302876                       # miss rate for ReadSharedReq accesses
system.l2.ReadSharedReq_miss_rate::total     0.302876                       # miss rate for ReadSharedReq accesses
system.l2.demand_miss_rate::cpu.inst         0.996226                       # miss rate for demand accesses
system.l2.demand_miss_rate::cpu.data         0.302737                       # miss rate for demand accesses
system.l2.demand_miss_rate::total            0.302753                       # miss rate for demand accesses
system.l2.overall_miss_rate::cpu.inst        0.996226                       # miss rate for overall accesses
system.l2.overall_miss_rate::cpu.data        0.302737                       # miss rate for overall accesses
system.l2.overall_miss_rate::total           0.302753                       # miss rate for overall accesses
system.l2.ReadExReq_avg_miss_latency::cpu.data 100147.963056                       # average ReadExReq miss latency
system.l2.ReadExReq_avg_miss_latency::total 100147.963056                       # average ReadExReq miss latency
system.l2.ReadCleanReq_avg_miss_latency::cpu.inst 101670.454545                       # average ReadCleanReq miss latency
system.l2.ReadCleanReq_avg_miss_latency::total 101670.454545                       # average ReadCleanReq miss latency
system.l2.ReadSharedReq_avg_miss_latency::cpu.data 108958.870410                       # average ReadSharedReq miss latency
system.l2.ReadSharedReq_avg_miss_latency::total 108958.870410                       # average ReadSharedReq miss latency
system.l2.demand_avg_miss_latency::cpu.inst 101670.454545                       # average overall miss latency
system.l2.demand_avg_miss_latency::cpu.data 108779.252289                       # average overall miss latency
system.l2.demand_avg_miss_latency::total 108778.704488                       # average overall miss latency
system.l2.overall_avg_miss_latency::cpu.inst 101670.454545                       # average overall miss latency
system.l2.overall_avg_miss_latency::cpu.data 108779.252289                       # average overall miss latency
system.l2.overall_avg_miss_latency::total 108778.704488                       # average overall miss latency
system.l2.blocked_cycles::no_mshrs                  0                       # number of cycles access was blocked
system.l2.blocked_cycles::no_targets                0                       # number of cycles access was blocked
system.l2.blocked::no_mshrs                         0                       # number of cycles access was blocked
system.l2.blocked::no_targets                       0                       # number of cycles access was blocked
system.l2.avg_blocked_cycles::no_mshrs            nan                       # average number of cycles each access was blocked
system.l2.avg_blocked_cycles::no_targets          nan                       # average number of cycles each access was blocked
system.l2.fast_writes                               0                       # number of fast writes performed
system.l2.cache_copies                              0                       # number of cache copies performed
system.l2.writebacks::writebacks               608287                       # number of writebacks
system.l2.writebacks::total                    608287                       # number of writebacks
system.l2.CleanEvict_mshr_misses::writebacks       765548                       # number of CleanEvict MSHR misses
system.l2.CleanEvict_mshr_misses::total        765548                       # number of CleanEvict MSHR misses
system.l2.ReadExReq_mshr_misses::cpu.data        69835                       # number of ReadExReq MSHR misses
system.l2.ReadExReq_mshr_misses::total          69835                       # number of ReadExReq MSHR misses
system.l2.ReadCleanReq_mshr_misses::cpu.inst          264                       # number of ReadCleanReq MSHR misses
system.l2.ReadCleanReq_mshr_misses::total          264                       # number of ReadCleanReq MSHR misses
system.l2.ReadSharedReq_mshr_misses::cpu.data      3355820                       # number of ReadSharedReq MSHR misses
system.l2.ReadSharedReq_mshr_misses::total      3355820                       # number of ReadSharedReq MSHR misses
system.l2.demand_mshr_misses::cpu.inst            264                       # number of demand (read+write) MSHR misses
system.l2.demand_mshr_misses::cpu.data        3425655                       # number of demand (read+write) MSHR misses
system.l2.demand_mshr_misses::total           3425919                       # number of demand (read+write) MSHR misses
system.l2.overall_mshr_misses::cpu.inst           264                       # number of overall MSHR misses
system.l2.overall_mshr_misses::cpu.data       3425655                       # number of overall MSHR misses
system.l2.overall_mshr_misses::total          3425919                       # number of overall MSHR misses
system.l2.ReadExReq_mshr_miss_latency::cpu.data   6295483000                       # number of ReadExReq MSHR miss cycles
system.l2.ReadExReq_mshr_miss_latency::total   6295483000                       # number of ReadExReq MSHR miss cycles
system.l2.ReadCleanReq_mshr_miss_latency::cpu.inst     24201000                       # number of ReadCleanReq MSHR miss cycles
system.l2.ReadCleanReq_mshr_miss_latency::total     24201000                       # number of ReadCleanReq MSHR miss cycles
system.l2.ReadSharedReq_mshr_miss_latency::cpu.data 332088156500                       # number of ReadSharedReq MSHR miss cycles
system.l2.ReadSharedReq_mshr_miss_latency::total 332088156500                       # number of ReadSharedReq MSHR miss cycles
system.l2.demand_mshr_miss_latency::cpu.inst     24201000                       # number of demand (read+write) MSHR miss cycles
system.l2.demand_mshr_miss_latency::cpu.data 338383639500                       # number of demand (read+write) MSHR miss cycles
system.l2.demand_mshr_miss_latency::total 338407840500                       # number of demand (read+write) MSHR miss cycles
system.l2.overall_mshr_miss_latency::cpu.inst     24201000                       # number of overall MSHR miss cycles
system.l2.overall_mshr_miss_latency::cpu.data 338383639500                       # number of overall MSHR miss cycles
system.l2.overall_mshr_miss_latency::total 338407840500                       # number of overall MSHR miss cycles
system.l2.CleanEvict_mshr_miss_rate::writebacks          inf                       # mshr miss rate for CleanEvict accesses
system.l2.CleanEvict_mshr_miss_rate::total          inf                       # mshr miss rate for CleanEvict accesses
system.l2.ReadExReq_mshr_miss_rate::cpu.data     0.296229                       # mshr miss rate for ReadExReq accesses
system.l2.ReadExReq_mshr_miss_rate::total     0.296229                       # mshr miss rate for ReadExReq accesses
system.l2.ReadCleanReq_mshr_miss_rate::cpu.inst     0.996226                       # mshr miss rate for ReadCleanReq accesses
system.l2.ReadCleanReq_mshr_miss_rate::total     0.996226                       # mshr miss rate for ReadCleanReq accesses
system.l2.ReadSharedReq_mshr_miss_rate::cpu.data     0.302876                       # mshr miss rate for ReadSharedReq accesses
system.l2.ReadSharedReq_mshr_miss_rate::total     0.302876                       # mshr miss rate for ReadSharedReq accesses
system.l2.demand_mshr_miss_rate::cpu.inst     0.996226                       # mshr miss rate for demand accesses
system.l2.demand_mshr_miss_rate::cpu.data     0.302737                       # mshr miss rate for demand accesses
system.l2.demand_mshr_miss_rate::total       0.302753                       # mshr miss rate for demand accesses
system.l2.overall_mshr_miss_rate::cpu.inst     0.996226                       # mshr miss rate for overall accesses
system.l2.overall_mshr_miss_rate::cpu.data     0.302737                       # mshr miss rate for overall accesses
system.l2.overall_mshr_miss_rate::total      0.302753                       # mshr miss rate for overall accesses
system.l2.ReadExReq_avg_mshr_miss_latency::cpu.data 90147.963056                       # average ReadExReq mshr miss latency
system.l2.ReadExReq_avg_mshr_miss_latency::total 90147.963056                       # average ReadExReq mshr miss latency
system.l2.ReadCleanReq_avg_mshr_miss_latency::cpu.inst 91670.454545                       # average ReadCleanReq mshr miss latency
system.l2.ReadCleanReq_avg_mshr_miss_latency::total 91670.454545                       # average ReadCleanReq mshr miss latency
system.l2.ReadSharedReq_avg_mshr_miss_latency::cpu.data 98958.870410                       # average ReadSharedReq mshr miss latency
system.l2.ReadSharedReq_avg_mshr_miss_latency::total 98958.870410                       # average ReadSharedReq mshr miss latency
system.l2.demand_avg_mshr_miss_latency::cpu.inst 91670.454545                       # average overall mshr miss latency
system.l2.demand_avg_mshr_miss_latency::cpu.data 98779.252289                       # average overall mshr miss latency
system.l2.demand_avg_mshr_miss_latency::total 98778.704488                       # average overall mshr miss latency
system.l2.overall_avg_mshr_miss_latency::cpu.inst 91670.454545                       # average overall mshr miss latency
system.l2.overall_avg_mshr_miss_latency::cpu.data 98779.252289                       # average overall mshr miss latency
system.l2.overall_avg_mshr_miss_latency::total 98778.704488                       # average overall mshr miss latency
system.l2.no_allocate_misses                        0                       # Number of misses that were no-allocate
system.membus.trans_dist::ReadResp            3356084                       # Transaction distribution
system.membus.trans_dist::WritebackDirty       608287                       # Transaction distribution
system.membus.trans_dist::CleanEvict          2813283                       # Transaction distribution
system.membus.trans_dist::ReadExReq             69835                       # Transaction distribution
system.membus.trans_dist::ReadExResp            69835                       # Transaction distribution
system.membus.trans_dist::ReadSharedReq       3356084                       # Transaction distribution
system.membus.pkt_count_system.l2.mem_side::system.mem_ctrls.port     10273408                       # Packet count per connected master and slave (bytes)
system.membus.pkt_count_system.l2.mem_side::total     10273408                       # Packet count per connected master and slave (bytes)
system.membus.pkt_count::total               10273408                       # Packet count per connected master and slave (bytes)
system.membus.pkt_size_system.l2.mem_side::system.mem_ctrls.port   1032756736                       # Cumulative packet size per connected master and slave (bytes)
system.membus.pkt_size_system.l2.mem_side::total   1032756736                       # Cumulative packet size per connected master and slave (bytes)
system.membus.pkt_size::total              1032756736                       # Cumulative packet size per connected master and slave (bytes)
system.membus.snoops                                0                       # Total snoops (count)
system.membus.snoop_fanout::samples           6847489                       # Request fanout histogram
system.membus.snoop_fanout::mean                    0                       # Request fanout histogram
system.membus.snoop_fanout::stdev                   0                       # Request fanout histogram
system.membus.snoop_fanout::underflows              0      0.00%      0.00% # Request fanout histogram
system.membus.snoop_fanout::0                 6847489    100.00%    100.00% # Request fanout histogram
system.membus.snoop_fanout::1                       0      0.00%    100.00% # Request fanout histogram
system.membus.snoop_fanout::overflows               0      0.00%    100.00% # Request fanout histogram
system.membus.snoop_fanout::min_value               0                       # Request fanout histogram
system.membus.snoop_fanout::max_value               0                       # Request fanout histogram
system.membus.snoop_fanout::total             6847489                       # Request fanout histogram
system.membus.reqLayer2.occupancy         16593652000                       # Layer occupancy (ticks)
system.membus.reqLayer2.utilization               1.1                       # Layer utilization (%)
system.membus.respLayer1.occupancy        60268801250                       # Layer occupancy (ticks)
system.membus.respLayer1.utilization              4.2                       # Layer utilization (%)
system.tol2bus.snoop_filter.tot_requests     22630994                       # Total number of requests made to the snoop filter.
system.tol2bus.snoop_filter.hit_single_requests     11315122                       # Number of requests hitting in the snoop filter with a single holder of the requested data.
system.tol2bus.snoop_filter.hit_multi_requests            1                       # Number of requests hitting in the snoop filter with multiple (>1) holders of the requested data.
system.tol2bus.snoop_filter.tot_snoops         905409                       # Total number of snoops made to the snoop filter.
system.tol2bus.snoop_filter.hit_single_snoops       905409                       # Number of snoops hitting in the snoop filter with a single holder of the requested data.
system.tol2bus.snoop_filter.hit_multi_snoops            0                       # Number of snoops hitting in the snoop filter with multiple (>1) holders of the requested data.
system.tol2bus.trans_dist::ReadResp          11080125                       # Transaction distribution
system.tol2bus.trans_dist::WritebackDirty      3232350                       # Transaction distribution
system.tol2bus.trans_dist::WritebackClean           27                       # Transaction distribution
system.tol2bus.trans_dist::CleanEvict        11644175                       # Transaction distribution
system.tol2bus.trans_dist::ReadExReq           235747                       # Transaction distribution
system.tol2bus.trans_dist::ReadExResp          235747                       # Transaction distribution
system.tol2bus.trans_dist::ReadCleanReq           265                       # Transaction distribution
system.tol2bus.trans_dist::ReadSharedReq     11079860                       # Transaction distribution
system.tol2bus.pkt_count_system.cpu.icache.mem_side::system.l2.cpu_side          557                       # Packet count per connected master and slave (bytes)
system.tol2bus.pkt_count_system.cpu.dcache.mem_side::system.l2.cpu_side     33946308                       # Packet count per connected master and slave (bytes)
system.tol2bus.pkt_count::total              33946865                       # Packet count per connected master and slave (bytes)
system.tol2bus.pkt_size_system.cpu.icache.mem_side::system.l2.cpu_side        74752                       # Cumulative packet size per connected master and slave (bytes)
system.tol2bus.pkt_size_system.cpu.dcache.mem_side::system.l2.cpu_side   3568555520                       # Cumulative packet size per connected master and slave (bytes)
system.tol2bus.pkt_size::total             3568630272                       # Cumulative packet size per connected master and slave (bytes)
system.tol2bus.snoops                         3561431                       # Total snoops (count)
system.tol2bus.snoop_fanout::samples         14877303                       # Request fanout histogram
system.tol2bus.snoop_fanout::mean            0.060858                       # Request fanout histogram
system.tol2bus.snoop_fanout::stdev           0.239071                       # Request fanout histogram
system.tol2bus.snoop_fanout::underflows             0      0.00%      0.00% # Request fanout histogram
system.tol2bus.snoop_fanout::0               13971893     93.91%     93.91% # Request fanout histogram
system.tol2bus.snoop_fanout::1                 905410      6.09%    100.00% # Request fanout histogram
system.tol2bus.snoop_fanout::2                      0      0.00%    100.00% # Request fanout histogram
system.tol2bus.snoop_fanout::3                      0      0.00%    100.00% # Request fanout histogram
system.tol2bus.snoop_fanout::4                      0      0.00%    100.00% # Request fanout histogram
system.tol2bus.snoop_fanout::overflows              0      0.00%    100.00% # Request fanout histogram
system.tol2bus.snoop_fanout::min_value              0                       # Request fanout histogram
system.tol2bus.snoop_fanout::max_value              1                       # Request fanout histogram
system.tol2bus.snoop_fanout::total           14877303                       # Request fanout histogram
system.tol2bus.reqLayer0.occupancy        21811857000                       # Layer occupancy (ticks)
system.tol2bus.reqLayer0.utilization              1.5                       # Layer utilization (%)
system.tol2bus.respLayer0.occupancy           1192500                       # Layer occupancy (ticks)
system.tol2bus.respLayer0.utilization             0.0                       # Layer utilization (%)
system.tol2bus.respLayer1.occupancy       50920231500                       # Layer occupancy (ticks)
system.tol2bus.respLayer1.utilization             3.5                       # Layer utilization (%)

---------- End Simulation Statistics   ----------
