
---------- Begin Simulation Statistics ----------
sim_seconds                                  1.652655                       # Number of seconds simulated
sim_ticks                                1652654878500                       # Number of ticks simulated
final_tick                               1652654878500                       # Number of ticks from beginning of simulation (restored from checkpoints and never reset)
sim_freq                                 1000000000000                       # Frequency of simulated ticks
host_inst_rate                                 422818                       # Simulator instruction rate (inst/s)
host_op_rate                                   741042                       # Simulator op (including micro ops) rate (op/s)
host_tick_rate                             1397544042                       # Simulator tick rate (ticks/s)
host_mem_usage                                 825116                       # Number of bytes of host memory used
host_seconds                                  1182.54                       # Real time elapsed on the host
sim_insts                                   500000000                       # Number of instructions simulated
sim_ops                                     876313787                       # Number of ops (including micro ops) simulated
system.voltage_domain.voltage                       1                       # Voltage in Volts
system.clk_domain.clock                          1000                       # Clock period in ticks
system.mem_ctrls.bytes_read::cpu.inst           43200                       # Number of bytes read from this memory
system.mem_ctrls.bytes_read::cpu.data       448545856                       # Number of bytes read from this memory
system.mem_ctrls.bytes_read::total          448589056                       # Number of bytes read from this memory
system.mem_ctrls.bytes_inst_read::cpu.inst        43200                       # Number of instructions bytes read from this memory
system.mem_ctrls.bytes_inst_read::total         43200                       # Number of instructions bytes read from this memory
system.mem_ctrls.bytes_written::writebacks     76166720                       # Number of bytes written to this memory
system.mem_ctrls.bytes_written::total        76166720                       # Number of bytes written to this memory
system.mem_ctrls.num_reads::cpu.inst              675                       # Number of read requests responded to by this memory
system.mem_ctrls.num_reads::cpu.data          7008529                       # Number of read requests responded to by this memory
system.mem_ctrls.num_reads::total             7009204                       # Number of read requests responded to by this memory
system.mem_ctrls.num_writes::writebacks       1190105                       # Number of write requests responded to by this memory
system.mem_ctrls.num_writes::total            1190105                       # Number of write requests responded to by this memory
system.mem_ctrls.bw_read::cpu.inst              26140                       # Total read bandwidth from this memory (bytes/s)
system.mem_ctrls.bw_read::cpu.data          271409271                       # Total read bandwidth from this memory (bytes/s)
system.mem_ctrls.bw_read::total             271435411                       # Total read bandwidth from this memory (bytes/s)
system.mem_ctrls.bw_inst_read::cpu.inst         26140                       # Instruction read bandwidth from this memory (bytes/s)
system.mem_ctrls.bw_inst_read::total            26140                       # Instruction read bandwidth from this memory (bytes/s)
system.mem_ctrls.bw_write::writebacks        46087493                       # Write bandwidth from this memory (bytes/s)
system.mem_ctrls.bw_write::total             46087493                       # Write bandwidth from this memory (bytes/s)
system.mem_ctrls.bw_total::writebacks        46087493                       # Total bandwidth to/from this memory (bytes/s)
system.mem_ctrls.bw_total::cpu.inst             26140                       # Total bandwidth to/from this memory (bytes/s)
system.mem_ctrls.bw_total::cpu.data         271409271                       # Total bandwidth to/from this memory (bytes/s)
system.mem_ctrls.bw_total::total            317522904                       # Total bandwidth to/from this memory (bytes/s)
system.mem_ctrls.readReqs                     7009204                       # Number of read requests accepted
system.mem_ctrls.writeReqs                    1190105                       # Number of write requests accepted
system.mem_ctrls.readBursts                   7009204                       # Number of DRAM read bursts, including those serviced by the write queue
system.mem_ctrls.writeBursts                  1190105                       # Number of DRAM write bursts, including those merged in the write queue
system.mem_ctrls.bytesReadDRAM              448120512                       # Total number of bytes read from DRAM
system.mem_ctrls.bytesReadWrQ                  468544                       # Total number of bytes read from write queue
system.mem_ctrls.bytesWritten                76164736                       # Total number of bytes written to DRAM
system.mem_ctrls.bytesReadSys               448589056                       # Total read bytes from the system interface side
system.mem_ctrls.bytesWrittenSys             76166720                       # Total written bytes from the system interface side
system.mem_ctrls.servicedByWrQ                   7321                       # Number of DRAM read bursts serviced by the write queue
system.mem_ctrls.mergedWrBursts                     0                       # Number of DRAM write bursts merged with an existing one
system.mem_ctrls.neitherReadNorWriteReqs      5810149                       # Number of requests that are neither read nor write
system.mem_ctrls.perBankRdBursts::0            448117                       # Per bank write bursts
system.mem_ctrls.perBankRdBursts::1            438897                       # Per bank write bursts
system.mem_ctrls.perBankRdBursts::2            434463                       # Per bank write bursts
system.mem_ctrls.perBankRdBursts::3            435935                       # Per bank write bursts
system.mem_ctrls.perBankRdBursts::4            427838                       # Per bank write bursts
system.mem_ctrls.perBankRdBursts::5            430139                       # Per bank write bursts
system.mem_ctrls.perBankRdBursts::6            429445                       # Per bank write bursts
system.mem_ctrls.perBankRdBursts::7            428845                       # Per bank write bursts
system.mem_ctrls.perBankRdBursts::8            435688                       # Per bank write bursts
system.mem_ctrls.perBankRdBursts::9            431069                       # Per bank write bursts
system.mem_ctrls.perBankRdBursts::10           434433                       # Per bank write bursts
system.mem_ctrls.perBankRdBursts::11           440540                       # Per bank write bursts
system.mem_ctrls.perBankRdBursts::12           443442                       # Per bank write bursts
system.mem_ctrls.perBankRdBursts::13           448452                       # Per bank write bursts
system.mem_ctrls.perBankRdBursts::14           448825                       # Per bank write bursts
system.mem_ctrls.perBankRdBursts::15           445755                       # Per bank write bursts
system.mem_ctrls.perBankWrBursts::0             76663                       # Per bank write bursts
system.mem_ctrls.perBankWrBursts::1             76315                       # Per bank write bursts
system.mem_ctrls.perBankWrBursts::2             76122                       # Per bank write bursts
system.mem_ctrls.perBankWrBursts::3             77145                       # Per bank write bursts
system.mem_ctrls.perBankWrBursts::4             73290                       # Per bank write bursts
system.mem_ctrls.perBankWrBursts::5             70810                       # Per bank write bursts
system.mem_ctrls.perBankWrBursts::6             72874                       # Per bank write bursts
system.mem_ctrls.perBankWrBursts::7             71216                       # Per bank write bursts
system.mem_ctrls.perBankWrBursts::8             72089                       # Per bank write bursts
system.mem_ctrls.perBankWrBursts::9             70951                       # Per bank write bursts
system.mem_ctrls.perBankWrBursts::10            71349                       # Per bank write bursts
system.mem_ctrls.perBankWrBursts::11            74674                       # Per bank write bursts
system.mem_ctrls.perBankWrBursts::12            76861                       # Per bank write bursts
system.mem_ctrls.perBankWrBursts::13            76758                       # Per bank write bursts
system.mem_ctrls.perBankWrBursts::14            76314                       # Per bank write bursts
system.mem_ctrls.perBankWrBursts::15            76643                       # Per bank write bursts
system.mem_ctrls.numRdRetry                         0                       # Number of times read queue was full causing retry
system.mem_ctrls.numWrRetry                         0                       # Number of times write queue was full causing retry
system.mem_ctrls.totGap                  1652637872500                       # Total gap between requests
system.mem_ctrls.readPktSize::0                     0                       # Read request sizes (log2)
system.mem_ctrls.readPktSize::1                     0                       # Read request sizes (log2)
system.mem_ctrls.readPktSize::2                     0                       # Read request sizes (log2)
system.mem_ctrls.readPktSize::3                     0                       # Read request sizes (log2)
system.mem_ctrls.readPktSize::4                     0                       # Read request sizes (log2)
system.mem_ctrls.readPktSize::5                     0                       # Read request sizes (log2)
system.mem_ctrls.readPktSize::6               7009204                       # Read request sizes (log2)
system.mem_ctrls.writePktSize::0                    0                       # Write request sizes (log2)
system.mem_ctrls.writePktSize::1                    0                       # Write request sizes (log2)
system.mem_ctrls.writePktSize::2                    0                       # Write request sizes (log2)
system.mem_ctrls.writePktSize::3                    0                       # Write request sizes (log2)
system.mem_ctrls.writePktSize::4                    0                       # Write request sizes (log2)
system.mem_ctrls.writePktSize::5                    0                       # Write request sizes (log2)
system.mem_ctrls.writePktSize::6              1190105                       # Write request sizes (log2)
system.mem_ctrls.rdQLenPdf::0                 7001883                       # What read queue length does an incoming req see
system.mem_ctrls.rdQLenPdf::1                       0                       # What read queue length does an incoming req see
system.mem_ctrls.rdQLenPdf::2                       0                       # What read queue length does an incoming req see
system.mem_ctrls.rdQLenPdf::3                       0                       # What read queue length does an incoming req see
system.mem_ctrls.rdQLenPdf::4                       0                       # What read queue length does an incoming req see
system.mem_ctrls.rdQLenPdf::5                       0                       # What read queue length does an incoming req see
system.mem_ctrls.rdQLenPdf::6                       0                       # What read queue length does an incoming req see
system.mem_ctrls.rdQLenPdf::7                       0                       # What read queue length does an incoming req see
system.mem_ctrls.rdQLenPdf::8                       0                       # What read queue length does an incoming req see
system.mem_ctrls.rdQLenPdf::9                       0                       # What read queue length does an incoming req see
system.mem_ctrls.rdQLenPdf::10                      0                       # What read queue length does an incoming req see
system.mem_ctrls.rdQLenPdf::11                      0                       # What read queue length does an incoming req see
system.mem_ctrls.rdQLenPdf::12                      0                       # What read queue length does an incoming req see
system.mem_ctrls.rdQLenPdf::13                      0                       # What read queue length does an incoming req see
system.mem_ctrls.rdQLenPdf::14                      0                       # What read queue length does an incoming req see
system.mem_ctrls.rdQLenPdf::15                      0                       # What read queue length does an incoming req see
system.mem_ctrls.rdQLenPdf::16                      0                       # What read queue length does an incoming req see
system.mem_ctrls.rdQLenPdf::17                      0                       # What read queue length does an incoming req see
system.mem_ctrls.rdQLenPdf::18                      0                       # What read queue length does an incoming req see
system.mem_ctrls.rdQLenPdf::19                      0                       # What read queue length does an incoming req see
system.mem_ctrls.rdQLenPdf::20                      0                       # What read queue length does an incoming req see
system.mem_ctrls.rdQLenPdf::21                      0                       # What read queue length does an incoming req see
system.mem_ctrls.rdQLenPdf::22                      0                       # What read queue length does an incoming req see
system.mem_ctrls.rdQLenPdf::23                      0                       # What read queue length does an incoming req see
system.mem_ctrls.rdQLenPdf::24                      0                       # What read queue length does an incoming req see
system.mem_ctrls.rdQLenPdf::25                      0                       # What read queue length does an incoming req see
system.mem_ctrls.rdQLenPdf::26                      0                       # What read queue length does an incoming req see
system.mem_ctrls.rdQLenPdf::27                      0                       # What read queue length does an incoming req see
system.mem_ctrls.rdQLenPdf::28                      0                       # What read queue length does an incoming req see
system.mem_ctrls.rdQLenPdf::29                      0                       # What read queue length does an incoming req see
system.mem_ctrls.rdQLenPdf::30                      0                       # What read queue length does an incoming req see
system.mem_ctrls.rdQLenPdf::31                      0                       # What read queue length does an incoming req see
system.mem_ctrls.wrQLenPdf::0                       1                       # What write queue length does an incoming req see
system.mem_ctrls.wrQLenPdf::1                       1                       # What write queue length does an incoming req see
system.mem_ctrls.wrQLenPdf::2                       1                       # What write queue length does an incoming req see
system.mem_ctrls.wrQLenPdf::3                       1                       # What write queue length does an incoming req see
system.mem_ctrls.wrQLenPdf::4                       1                       # What write queue length does an incoming req see
system.mem_ctrls.wrQLenPdf::5                       1                       # What write queue length does an incoming req see
system.mem_ctrls.wrQLenPdf::6                       1                       # What write queue length does an incoming req see
system.mem_ctrls.wrQLenPdf::7                       1                       # What write queue length does an incoming req see
system.mem_ctrls.wrQLenPdf::8                       1                       # What write queue length does an incoming req see
system.mem_ctrls.wrQLenPdf::9                       1                       # What write queue length does an incoming req see
system.mem_ctrls.wrQLenPdf::10                      1                       # What write queue length does an incoming req see
system.mem_ctrls.wrQLenPdf::11                      1                       # What write queue length does an incoming req see
system.mem_ctrls.wrQLenPdf::12                      1                       # What write queue length does an incoming req see
system.mem_ctrls.wrQLenPdf::13                      1                       # What write queue length does an incoming req see
system.mem_ctrls.wrQLenPdf::14                      1                       # What write queue length does an incoming req see
system.mem_ctrls.wrQLenPdf::15                  27855                       # What write queue length does an incoming req see
system.mem_ctrls.wrQLenPdf::16                  28793                       # What write queue length does an incoming req see
system.mem_ctrls.wrQLenPdf::17                  70454                       # What write queue length does an incoming req see
system.mem_ctrls.wrQLenPdf::18                  70897                       # What write queue length does an incoming req see
system.mem_ctrls.wrQLenPdf::19                  70811                       # What write queue length does an incoming req see
system.mem_ctrls.wrQLenPdf::20                  70773                       # What write queue length does an incoming req see
system.mem_ctrls.wrQLenPdf::21                  70773                       # What write queue length does an incoming req see
system.mem_ctrls.wrQLenPdf::22                  70791                       # What write queue length does an incoming req see
system.mem_ctrls.wrQLenPdf::23                  70801                       # What write queue length does an incoming req see
system.mem_ctrls.wrQLenPdf::24                  70775                       # What write queue length does an incoming req see
system.mem_ctrls.wrQLenPdf::25                  70911                       # What write queue length does an incoming req see
system.mem_ctrls.wrQLenPdf::26                  70817                       # What write queue length does an incoming req see
system.mem_ctrls.wrQLenPdf::27                  71378                       # What write queue length does an incoming req see
system.mem_ctrls.wrQLenPdf::28                  71189                       # What write queue length does an incoming req see
system.mem_ctrls.wrQLenPdf::29                  70771                       # What write queue length does an incoming req see
system.mem_ctrls.wrQLenPdf::30                  70776                       # What write queue length does an incoming req see
system.mem_ctrls.wrQLenPdf::31                  70754                       # What write queue length does an incoming req see
system.mem_ctrls.wrQLenPdf::32                  70754                       # What write queue length does an incoming req see
system.mem_ctrls.wrQLenPdf::33                     16                       # What write queue length does an incoming req see
system.mem_ctrls.wrQLenPdf::34                      1                       # What write queue length does an incoming req see
system.mem_ctrls.wrQLenPdf::35                      0                       # What write queue length does an incoming req see
system.mem_ctrls.wrQLenPdf::36                      0                       # What write queue length does an incoming req see
system.mem_ctrls.wrQLenPdf::37                      0                       # What write queue length does an incoming req see
system.mem_ctrls.wrQLenPdf::38                      0                       # What write queue length does an incoming req see
system.mem_ctrls.wrQLenPdf::39                      0                       # What write queue length does an incoming req see
system.mem_ctrls.wrQLenPdf::40                      0                       # What write queue length does an incoming req see
system.mem_ctrls.wrQLenPdf::41                      0                       # What write queue length does an incoming req see
system.mem_ctrls.wrQLenPdf::42                      0                       # What write queue length does an incoming req see
system.mem_ctrls.wrQLenPdf::43                      0                       # What write queue length does an incoming req see
system.mem_ctrls.wrQLenPdf::44                      0                       # What write queue length does an incoming req see
system.mem_ctrls.wrQLenPdf::45                      0                       # What write queue length does an incoming req see
system.mem_ctrls.wrQLenPdf::46                      0                       # What write queue length does an incoming req see
system.mem_ctrls.wrQLenPdf::47                      0                       # What write queue length does an incoming req see
system.mem_ctrls.wrQLenPdf::48                      0                       # What write queue length does an incoming req see
system.mem_ctrls.wrQLenPdf::49                      0                       # What write queue length does an incoming req see
system.mem_ctrls.wrQLenPdf::50                      0                       # What write queue length does an incoming req see
system.mem_ctrls.wrQLenPdf::51                      0                       # What write queue length does an incoming req see
system.mem_ctrls.wrQLenPdf::52                      0                       # What write queue length does an incoming req see
system.mem_ctrls.wrQLenPdf::53                      0                       # What write queue length does an incoming req see
system.mem_ctrls.wrQLenPdf::54                      0                       # What write queue length does an incoming req see
system.mem_ctrls.wrQLenPdf::55                      0                       # What write queue length does an incoming req see
system.mem_ctrls.wrQLenPdf::56                      0                       # What write queue length does an incoming req see
system.mem_ctrls.wrQLenPdf::57                      0                       # What write queue length does an incoming req see
system.mem_ctrls.wrQLenPdf::58                      0                       # What write queue length does an incoming req see
system.mem_ctrls.wrQLenPdf::59                      0                       # What write queue length does an incoming req see
system.mem_ctrls.wrQLenPdf::60                      0                       # What write queue length does an incoming req see
system.mem_ctrls.wrQLenPdf::61                      0                       # What write queue length does an incoming req see
system.mem_ctrls.wrQLenPdf::62                      0                       # What write queue length does an incoming req see
system.mem_ctrls.wrQLenPdf::63                      0                       # What write queue length does an incoming req see
system.mem_ctrls.bytesPerActivate::samples      5999925                       # Bytes accessed per row activation
system.mem_ctrls.bytesPerActivate::mean     87.381967                       # Bytes accessed per row activation
system.mem_ctrls.bytesPerActivate::gmean    72.509279                       # Bytes accessed per row activation
system.mem_ctrls.bytesPerActivate::stdev   113.945444                       # Bytes accessed per row activation
system.mem_ctrls.bytesPerActivate::0-127      5358730     89.31%     89.31% # Bytes accessed per row activation
system.mem_ctrls.bytesPerActivate::128-255       455107      7.59%     96.90% # Bytes accessed per row activation
system.mem_ctrls.bytesPerActivate::256-383        55913      0.93%     97.83% # Bytes accessed per row activation
system.mem_ctrls.bytesPerActivate::384-511        23707      0.40%     98.23% # Bytes accessed per row activation
system.mem_ctrls.bytesPerActivate::512-639        14728      0.25%     98.47% # Bytes accessed per row activation
system.mem_ctrls.bytesPerActivate::640-767        15107      0.25%     98.72% # Bytes accessed per row activation
system.mem_ctrls.bytesPerActivate::768-895        14061      0.23%     98.96% # Bytes accessed per row activation
system.mem_ctrls.bytesPerActivate::896-1023         7607      0.13%     99.08% # Bytes accessed per row activation
system.mem_ctrls.bytesPerActivate::1024-1151        54965      0.92%    100.00% # Bytes accessed per row activation
system.mem_ctrls.bytesPerActivate::total      5999925                       # Bytes accessed per row activation
system.mem_ctrls.rdPerTurnAround::samples        70754                       # Reads before turning the bus around for writes
system.mem_ctrls.rdPerTurnAround::mean      98.958773                       # Reads before turning the bus around for writes
system.mem_ctrls.rdPerTurnAround::gmean     47.828788                       # Reads before turning the bus around for writes
system.mem_ctrls.rdPerTurnAround::stdev    183.167460                       # Reads before turning the bus around for writes
system.mem_ctrls.rdPerTurnAround::0-511         67015     94.72%     94.72% # Reads before turning the bus around for writes
system.mem_ctrls.rdPerTurnAround::512-1023         3408      4.82%     99.53% # Reads before turning the bus around for writes
system.mem_ctrls.rdPerTurnAround::1024-1535          310      0.44%     99.97% # Reads before turning the bus around for writes
system.mem_ctrls.rdPerTurnAround::1536-2047           18      0.03%    100.00% # Reads before turning the bus around for writes
system.mem_ctrls.rdPerTurnAround::2048-2559            2      0.00%    100.00% # Reads before turning the bus around for writes
system.mem_ctrls.rdPerTurnAround::10240-10751            1      0.00%    100.00% # Reads before turning the bus around for writes
system.mem_ctrls.rdPerTurnAround::total         70754                       # Reads before turning the bus around for writes
system.mem_ctrls.wrPerTurnAround::samples        70754                       # Writes before turning the bus around for reads
system.mem_ctrls.wrPerTurnAround::mean      16.819883                       # Writes before turning the bus around for reads
system.mem_ctrls.wrPerTurnAround::gmean     16.790305                       # Writes before turning the bus around for reads
system.mem_ctrls.wrPerTurnAround::stdev      1.006506                       # Writes before turning the bus around for reads
system.mem_ctrls.wrPerTurnAround::16            41965     59.31%     59.31% # Writes before turning the bus around for reads
system.mem_ctrls.wrPerTurnAround::17              924      1.31%     60.62% # Writes before turning the bus around for reads
system.mem_ctrls.wrPerTurnAround::18            26541     37.51%     98.13% # Writes before turning the bus around for reads
system.mem_ctrls.wrPerTurnAround::19             1296      1.83%     99.96% # Writes before turning the bus around for reads
system.mem_ctrls.wrPerTurnAround::20               25      0.04%    100.00% # Writes before turning the bus around for reads
system.mem_ctrls.wrPerTurnAround::21                2      0.00%    100.00% # Writes before turning the bus around for reads
system.mem_ctrls.wrPerTurnAround::22                1      0.00%    100.00% # Writes before turning the bus around for reads
system.mem_ctrls.wrPerTurnAround::total         70754                       # Writes before turning the bus around for reads
system.mem_ctrls.totQLat                 157310902000                       # Total ticks spent queuing
system.mem_ctrls.totMemAccLat            288596208250                       # Total ticks spent from burst creation until serviced by the DRAM
system.mem_ctrls.totBusLat                35009415000                       # Total ticks spent in databus transfers
system.mem_ctrls.avgQLat                     22466.94                       # Average queueing delay per DRAM burst
system.mem_ctrls.avgBusLat                    5000.00                       # Average bus latency per DRAM burst
system.mem_ctrls.avgMemAccLat                41216.94                       # Average memory access latency per DRAM burst
system.mem_ctrls.avgRdBW                       271.15                       # Average DRAM read bandwidth in MiByte/s
system.mem_ctrls.avgWrBW                        46.09                       # Average achieved write bandwidth in MiByte/s
system.mem_ctrls.avgRdBWSys                    271.44                       # Average system read bandwidth in MiByte/s
system.mem_ctrls.avgWrBWSys                     46.09                       # Average system write bandwidth in MiByte/s
system.mem_ctrls.peakBW                      12800.00                       # Theoretical peak bandwidth in MiByte/s
system.mem_ctrls.busUtil                         2.48                       # Data bus utilization in percentage
system.mem_ctrls.busUtilRead                     2.12                       # Data bus utilization in percentage for reads
system.mem_ctrls.busUtilWrite                    0.36                       # Data bus utilization in percentage for writes
system.mem_ctrls.avgRdQLen                       1.00                       # Average read queue length when enqueuing
system.mem_ctrls.avgWrQLen                      24.78                       # Average write queue length when enqueuing
system.mem_ctrls.readRowHits                  1524609                       # Number of row buffer hits during reads
system.mem_ctrls.writeRowHits                  667423                       # Number of row buffer hits during writes
system.mem_ctrls.readRowHitRate                 21.77                       # Row buffer hit rate for reads
system.mem_ctrls.writeRowHitRate                56.08                       # Row buffer hit rate for writes
system.mem_ctrls.avgGap                     201558.19                       # Average gap between requests
system.mem_ctrls.pageHitRate                    26.76                       # Row buffer hit rate, read and write combined
system.mem_ctrls_0.actEnergy              22483787760                       # Energy for activate commands per rank (pJ)
system.mem_ctrls_0.preEnergy              12267939750                       # Energy for precharge commands per rank (pJ)
system.mem_ctrls_0.readEnergy             27094696200                       # Energy for read commands per rank (pJ)
system.mem_ctrls_0.writeEnergy             3851938800                       # Energy for write commands per rank (pJ)
system.mem_ctrls_0.refreshEnergy         107942877120                       # Energy for refresh commands per rank (pJ)
system.mem_ctrls_0.actBackEnergy         865996005375                       # Energy for active background per rank (pJ)
system.mem_ctrls_0.preBackEnergy         231942810000                       # Energy for precharge background per rank (pJ)
system.mem_ctrls_0.totalEnergy           1271580055005                       # Total energy per rank (pJ)
system.mem_ctrls_0.averagePower            769.420065                       # Core power per rank (mW)
system.mem_ctrls_0.memoryStateTime::IDLE 380755294500                       # Time in different power states
system.mem_ctrls_0.memoryStateTime::REF   55185520000                       # Time in different power states
system.mem_ctrls_0.memoryStateTime::PRE_PDN            0                       # Time in different power states
system.mem_ctrls_0.memoryStateTime::ACT  1216706580500                       # Time in different power states
system.mem_ctrls_0.memoryStateTime::ACT_PDN            0                       # Time in different power states
system.mem_ctrls_1.actEnergy              22875645240                       # Energy for activate commands per rank (pJ)
system.mem_ctrls_1.preEnergy              12481750875                       # Energy for precharge commands per rank (pJ)
system.mem_ctrls_1.readEnergy             27519991200                       # Energy for read commands per rank (pJ)
system.mem_ctrls_1.writeEnergy             3859740720                       # Energy for write commands per rank (pJ)
system.mem_ctrls_1.refreshEnergy         107942877120                       # Energy for refresh commands per rank (pJ)
system.mem_ctrls_1.actBackEnergy         866391380460                       # Energy for active background per rank (pJ)
system.mem_ctrls_1.preBackEnergy         231595989750                       # Energy for precharge background per rank (pJ)
system.mem_ctrls_1.totalEnergy           1272667375365                       # Total energy per rank (pJ)
system.mem_ctrls_1.averagePower            770.077991                       # Core power per rank (mW)
system.mem_ctrls_1.memoryStateTime::IDLE 379945536250                       # Time in different power states
system.mem_ctrls_1.memoryStateTime::REF   55185520000                       # Time in different power states
system.mem_ctrls_1.memoryStateTime::PRE_PDN            0                       # Time in different power states
system.mem_ctrls_1.memoryStateTime::ACT  1217516338750                       # Time in different power states
system.mem_ctrls_1.memoryStateTime::ACT_PDN            0                       # Time in different power states
system.cpu_voltage_domain.voltage                   1                       # Voltage in Volts
system.cpu_clk_domain.clock                       500                       # Clock period in ticks
system.cpu.apic_clk_domain.clock                 8000                       # Clock period in ticks
system.cpu.workload.num_syscalls                  168                       # Number of system calls
system.cpu.numCycles                       3305309757                       # number of cpu cycles simulated
system.cpu.numWorkItemsStarted                      0                       # number of work items this cpu started
system.cpu.numWorkItemsCompleted                    0                       # number of work items this cpu completed
system.cpu.committedInsts                   500000000                       # Number of instructions committed
system.cpu.committedOps                     876313787                       # Number of ops (including micro ops) committed
system.cpu.num_int_alu_accesses             872966684                       # Number of integer alu accesses
system.cpu.num_fp_alu_accesses                2882231                       # Number of float alu accesses
system.cpu.num_func_calls                    11025254                       # number of times a function call or return occured
system.cpu.num_conditional_control_insts     75981010                       # number of instructions that are conditional controls
system.cpu.num_int_insts                    872966684                       # number of integer instructions
system.cpu.num_fp_insts                       2882231                       # number of float instructions
system.cpu.num_int_register_reads          1835046968                       # number of times the integer registers were read
system.cpu.num_int_register_writes          703076421                       # number of times the integer registers were written
system.cpu.num_fp_register_reads              4386063                       # number of times the floating registers were read
system.cpu.num_fp_register_writes             2464405                       # number of times the floating registers were written
system.cpu.num_cc_register_reads            441654672                       # number of times the CC registers were read
system.cpu.num_cc_register_writes           253505512                       # number of times the CC registers were written
system.cpu.num_mem_refs                     293763601                       # number of memory refs
system.cpu.num_load_insts                   221285044                       # Number of load instructions
system.cpu.num_store_insts                   72478557                       # Number of store instructions
system.cpu.num_idle_cycles                          0                       # Number of idle cycles
system.cpu.num_busy_cycles                 3305309757                       # Number of busy cycles
system.cpu.not_idle_fraction                        1                       # Percentage of non-idle cycles
system.cpu.idle_fraction                            0                       # Percentage of idle cycles
system.cpu.Branches                          97901002                       # Number of branches fetched
system.cpu.op_class::No_OpClass                939429      0.11%      0.11% # Class of executed instruction
system.cpu.op_class::IntAlu                 578420256     66.01%     66.11% # Class of executed instruction
system.cpu.op_class::IntMult                   907073      0.10%     66.22% # Class of executed instruction
system.cpu.op_class::IntDiv                        42      0.00%     66.22% # Class of executed instruction
system.cpu.op_class::FloatAdd                 2283386      0.26%     66.48% # Class of executed instruction
system.cpu.op_class::FloatCmp                       0      0.00%     66.48% # Class of executed instruction
system.cpu.op_class::FloatCvt                       0      0.00%     66.48% # Class of executed instruction
system.cpu.op_class::FloatMult                      0      0.00%     66.48% # Class of executed instruction
system.cpu.op_class::FloatDiv                       0      0.00%     66.48% # Class of executed instruction
system.cpu.op_class::FloatSqrt                      0      0.00%     66.48% # Class of executed instruction
system.cpu.op_class::SimdAdd                        0      0.00%     66.48% # Class of executed instruction
system.cpu.op_class::SimdAddAcc                     0      0.00%     66.48% # Class of executed instruction
system.cpu.op_class::SimdAlu                        0      0.00%     66.48% # Class of executed instruction
system.cpu.op_class::SimdCmp                        0      0.00%     66.48% # Class of executed instruction
system.cpu.op_class::SimdCvt                        0      0.00%     66.48% # Class of executed instruction
system.cpu.op_class::SimdMisc                       0      0.00%     66.48% # Class of executed instruction
system.cpu.op_class::SimdMult                       0      0.00%     66.48% # Class of executed instruction
system.cpu.op_class::SimdMultAcc                    0      0.00%     66.48% # Class of executed instruction
system.cpu.op_class::SimdShift                      0      0.00%     66.48% # Class of executed instruction
system.cpu.op_class::SimdShiftAcc                   0      0.00%     66.48% # Class of executed instruction
system.cpu.op_class::SimdSqrt                       0      0.00%     66.48% # Class of executed instruction
system.cpu.op_class::SimdFloatAdd                   0      0.00%     66.48% # Class of executed instruction
system.cpu.op_class::SimdFloatAlu                   0      0.00%     66.48% # Class of executed instruction
system.cpu.op_class::SimdFloatCmp                   0      0.00%     66.48% # Class of executed instruction
system.cpu.op_class::SimdFloatCvt                   0      0.00%     66.48% # Class of executed instruction
system.cpu.op_class::SimdFloatDiv                   0      0.00%     66.48% # Class of executed instruction
system.cpu.op_class::SimdFloatMisc                  0      0.00%     66.48% # Class of executed instruction
system.cpu.op_class::SimdFloatMult                  0      0.00%     66.48% # Class of executed instruction
system.cpu.op_class::SimdFloatMultAcc               0      0.00%     66.48% # Class of executed instruction
system.cpu.op_class::SimdFloatSqrt                  0      0.00%     66.48% # Class of executed instruction
system.cpu.op_class::MemRead                221285044     25.25%     91.73% # Class of executed instruction
system.cpu.op_class::MemWrite                72478557      8.27%    100.00% # Class of executed instruction
system.cpu.op_class::IprAccess                      0      0.00%    100.00% # Class of executed instruction
system.cpu.op_class::InstPrefetch                   0      0.00%    100.00% # Class of executed instruction
system.cpu.op_class::total                  876313787                       # Class of executed instruction
system.cpu.dcache.tags.replacements           9634281                       # number of replacements
system.cpu.dcache.tags.tagsinuse          2047.328931                       # Cycle average of tags in use
system.cpu.dcache.tags.total_refs           284141400                       # Total number of references to valid blocks.
system.cpu.dcache.tags.sampled_refs           9636329                       # Sample count of references to valid blocks.
system.cpu.dcache.tags.avg_refs             29.486478                       # Average number of references to valid blocks.
system.cpu.dcache.tags.warmup_cycle        1262398500                       # Cycle when the warmup percentage was hit.
system.cpu.dcache.tags.occ_blocks::cpu.data  2047.328931                       # Average occupied blocks per requestor
system.cpu.dcache.tags.occ_percent::cpu.data     0.999672                       # Average percentage of cache occupancy
system.cpu.dcache.tags.occ_percent::total     0.999672                       # Average percentage of cache occupancy
system.cpu.dcache.tags.occ_task_id_blocks::1024         2048                       # Occupied blocks per task id
system.cpu.dcache.tags.age_task_id_blocks_1024::1          611                       # Occupied blocks per task id
system.cpu.dcache.tags.age_task_id_blocks_1024::2         1335                       # Occupied blocks per task id
system.cpu.dcache.tags.age_task_id_blocks_1024::3           93                       # Occupied blocks per task id
system.cpu.dcache.tags.age_task_id_blocks_1024::4            9                       # Occupied blocks per task id
system.cpu.dcache.tags.occ_task_id_percent::1024            1                       # Percentage of cache occupancy per task id
system.cpu.dcache.tags.tag_accesses        1184747245                       # Number of tag accesses
system.cpu.dcache.tags.data_accesses       1184747245                       # Number of data accesses
system.cpu.dcache.ReadReq_hits::cpu.data    211937466                       # number of ReadReq hits
system.cpu.dcache.ReadReq_hits::total       211937466                       # number of ReadReq hits
system.cpu.dcache.WriteReq_hits::cpu.data     72203934                       # number of WriteReq hits
system.cpu.dcache.WriteReq_hits::total       72203934                       # number of WriteReq hits
system.cpu.dcache.demand_hits::cpu.data     284141400                       # number of demand (read+write) hits
system.cpu.dcache.demand_hits::total        284141400                       # number of demand (read+write) hits
system.cpu.dcache.overall_hits::cpu.data    284141400                       # number of overall hits
system.cpu.dcache.overall_hits::total       284141400                       # number of overall hits
system.cpu.dcache.ReadReq_misses::cpu.data      9361705                       # number of ReadReq misses
system.cpu.dcache.ReadReq_misses::total       9361705                       # number of ReadReq misses
system.cpu.dcache.WriteReq_misses::cpu.data       274624                       # number of WriteReq misses
system.cpu.dcache.WriteReq_misses::total       274624                       # number of WriteReq misses
system.cpu.dcache.demand_misses::cpu.data      9636329                       # number of demand (read+write) misses
system.cpu.dcache.demand_misses::total        9636329                       # number of demand (read+write) misses
system.cpu.dcache.overall_misses::cpu.data      9636329                       # number of overall misses
system.cpu.dcache.overall_misses::total       9636329                       # number of overall misses
system.cpu.dcache.ReadReq_miss_latency::cpu.data 672214021000                       # number of ReadReq miss cycles
system.cpu.dcache.ReadReq_miss_latency::total 672214021000                       # number of ReadReq miss cycles
system.cpu.dcache.WriteReq_miss_latency::cpu.data  18935748000                       # number of WriteReq miss cycles
system.cpu.dcache.WriteReq_miss_latency::total  18935748000                       # number of WriteReq miss cycles
system.cpu.dcache.demand_miss_latency::cpu.data 691149769000                       # number of demand (read+write) miss cycles
system.cpu.dcache.demand_miss_latency::total 691149769000                       # number of demand (read+write) miss cycles
system.cpu.dcache.overall_miss_latency::cpu.data 691149769000                       # number of overall miss cycles
system.cpu.dcache.overall_miss_latency::total 691149769000                       # number of overall miss cycles
system.cpu.dcache.ReadReq_accesses::cpu.data    221299171                       # number of ReadReq accesses(hits+misses)
system.cpu.dcache.ReadReq_accesses::total    221299171                       # number of ReadReq accesses(hits+misses)
system.cpu.dcache.WriteReq_accesses::cpu.data     72478558                       # number of WriteReq accesses(hits+misses)
system.cpu.dcache.WriteReq_accesses::total     72478558                       # number of WriteReq accesses(hits+misses)
system.cpu.dcache.demand_accesses::cpu.data    293777729                       # number of demand (read+write) accesses
system.cpu.dcache.demand_accesses::total    293777729                       # number of demand (read+write) accesses
system.cpu.dcache.overall_accesses::cpu.data    293777729                       # number of overall (read+write) accesses
system.cpu.dcache.overall_accesses::total    293777729                       # number of overall (read+write) accesses
system.cpu.dcache.ReadReq_miss_rate::cpu.data     0.042303                       # miss rate for ReadReq accesses
system.cpu.dcache.ReadReq_miss_rate::total     0.042303                       # miss rate for ReadReq accesses
system.cpu.dcache.WriteReq_miss_rate::cpu.data     0.003789                       # miss rate for WriteReq accesses
system.cpu.dcache.WriteReq_miss_rate::total     0.003789                       # miss rate for WriteReq accesses
system.cpu.dcache.demand_miss_rate::cpu.data     0.032801                       # miss rate for demand accesses
system.cpu.dcache.demand_miss_rate::total     0.032801                       # miss rate for demand accesses
system.cpu.dcache.overall_miss_rate::cpu.data     0.032801                       # miss rate for overall accesses
system.cpu.dcache.overall_miss_rate::total     0.032801                       # miss rate for overall accesses
system.cpu.dcache.ReadReq_avg_miss_latency::cpu.data 71804.657485                       # average ReadReq miss latency
system.cpu.dcache.ReadReq_avg_miss_latency::total 71804.657485                       # average ReadReq miss latency
system.cpu.dcache.WriteReq_avg_miss_latency::cpu.data 68951.541016                       # average WriteReq miss latency
system.cpu.dcache.WriteReq_avg_miss_latency::total 68951.541016                       # average WriteReq miss latency
system.cpu.dcache.demand_avg_miss_latency::cpu.data 71723.347034                       # average overall miss latency
system.cpu.dcache.demand_avg_miss_latency::total 71723.347034                       # average overall miss latency
system.cpu.dcache.overall_avg_miss_latency::cpu.data 71723.347034                       # average overall miss latency
system.cpu.dcache.overall_avg_miss_latency::total 71723.347034                       # average overall miss latency
system.cpu.dcache.blocked_cycles::no_mshrs            0                       # number of cycles access was blocked
system.cpu.dcache.blocked_cycles::no_targets            0                       # number of cycles access was blocked
system.cpu.dcache.blocked::no_mshrs                 0                       # number of cycles access was blocked
system.cpu.dcache.blocked::no_targets               0                       # number of cycles access was blocked
system.cpu.dcache.avg_blocked_cycles::no_mshrs          nan                       # average number of cycles each access was blocked
system.cpu.dcache.avg_blocked_cycles::no_targets          nan                       # average number of cycles each access was blocked
system.cpu.dcache.fast_writes                       0                       # number of fast writes performed
system.cpu.dcache.cache_copies                      0                       # number of cache copies performed
system.cpu.dcache.writebacks::writebacks      1739358                       # number of writebacks
system.cpu.dcache.writebacks::total           1739358                       # number of writebacks
system.cpu.dcache.ReadReq_mshr_misses::cpu.data      9361705                       # number of ReadReq MSHR misses
system.cpu.dcache.ReadReq_mshr_misses::total      9361705                       # number of ReadReq MSHR misses
system.cpu.dcache.WriteReq_mshr_misses::cpu.data       274624                       # number of WriteReq MSHR misses
system.cpu.dcache.WriteReq_mshr_misses::total       274624                       # number of WriteReq MSHR misses
system.cpu.dcache.demand_mshr_misses::cpu.data      9636329                       # number of demand (read+write) MSHR misses
system.cpu.dcache.demand_mshr_misses::total      9636329                       # number of demand (read+write) MSHR misses
system.cpu.dcache.overall_mshr_misses::cpu.data      9636329                       # number of overall MSHR misses
system.cpu.dcache.overall_mshr_misses::total      9636329                       # number of overall MSHR misses
system.cpu.dcache.ReadReq_mshr_miss_latency::cpu.data 662852316000                       # number of ReadReq MSHR miss cycles
system.cpu.dcache.ReadReq_mshr_miss_latency::total 662852316000                       # number of ReadReq MSHR miss cycles
system.cpu.dcache.WriteReq_mshr_miss_latency::cpu.data  18661124000                       # number of WriteReq MSHR miss cycles
system.cpu.dcache.WriteReq_mshr_miss_latency::total  18661124000                       # number of WriteReq MSHR miss cycles
system.cpu.dcache.demand_mshr_miss_latency::cpu.data 681513440000                       # number of demand (read+write) MSHR miss cycles
system.cpu.dcache.demand_mshr_miss_latency::total 681513440000                       # number of demand (read+write) MSHR miss cycles
system.cpu.dcache.overall_mshr_miss_latency::cpu.data 681513440000                       # number of overall MSHR miss cycles
system.cpu.dcache.overall_mshr_miss_latency::total 681513440000                       # number of overall MSHR miss cycles
system.cpu.dcache.ReadReq_mshr_miss_rate::cpu.data     0.042303                       # mshr miss rate for ReadReq accesses
system.cpu.dcache.ReadReq_mshr_miss_rate::total     0.042303                       # mshr miss rate for ReadReq accesses
system.cpu.dcache.WriteReq_mshr_miss_rate::cpu.data     0.003789                       # mshr miss rate for WriteReq accesses
system.cpu.dcache.WriteReq_mshr_miss_rate::total     0.003789                       # mshr miss rate for WriteReq accesses
system.cpu.dcache.demand_mshr_miss_rate::cpu.data     0.032801                       # mshr miss rate for demand accesses
system.cpu.dcache.demand_mshr_miss_rate::total     0.032801                       # mshr miss rate for demand accesses
system.cpu.dcache.overall_mshr_miss_rate::cpu.data     0.032801                       # mshr miss rate for overall accesses
system.cpu.dcache.overall_mshr_miss_rate::total     0.032801                       # mshr miss rate for overall accesses
system.cpu.dcache.ReadReq_avg_mshr_miss_latency::cpu.data 70804.657485                       # average ReadReq mshr miss latency
system.cpu.dcache.ReadReq_avg_mshr_miss_latency::total 70804.657485                       # average ReadReq mshr miss latency
system.cpu.dcache.WriteReq_avg_mshr_miss_latency::cpu.data 67951.541016                       # average WriteReq mshr miss latency
system.cpu.dcache.WriteReq_avg_mshr_miss_latency::total 67951.541016                       # average WriteReq mshr miss latency
system.cpu.dcache.demand_avg_mshr_miss_latency::cpu.data 70723.347034                       # average overall mshr miss latency
system.cpu.dcache.demand_avg_mshr_miss_latency::total 70723.347034                       # average overall mshr miss latency
system.cpu.dcache.overall_avg_mshr_miss_latency::cpu.data 70723.347034                       # average overall mshr miss latency
system.cpu.dcache.overall_avg_mshr_miss_latency::total 70723.347034                       # average overall mshr miss latency
system.cpu.dcache.no_allocate_misses                0                       # Number of misses that were no-allocate
system.cpu.dtb_walker_cache.tags.replacements            0                       # number of replacements
system.cpu.dtb_walker_cache.tags.tagsinuse            0                       # Cycle average of tags in use
system.cpu.dtb_walker_cache.tags.total_refs            0                       # Total number of references to valid blocks.
system.cpu.dtb_walker_cache.tags.sampled_refs            0                       # Sample count of references to valid blocks.
system.cpu.dtb_walker_cache.tags.avg_refs          nan                       # Average number of references to valid blocks.
system.cpu.dtb_walker_cache.tags.warmup_cycle            0                       # Cycle when the warmup percentage was hit.
system.cpu.dtb_walker_cache.tags.tag_accesses            0                       # Number of tag accesses
system.cpu.dtb_walker_cache.tags.data_accesses            0                       # Number of data accesses
system.cpu.dtb_walker_cache.blocked_cycles::no_mshrs            0                       # number of cycles access was blocked
system.cpu.dtb_walker_cache.blocked_cycles::no_targets            0                       # number of cycles access was blocked
system.cpu.dtb_walker_cache.blocked::no_mshrs            0                       # number of cycles access was blocked
system.cpu.dtb_walker_cache.blocked::no_targets            0                       # number of cycles access was blocked
system.cpu.dtb_walker_cache.avg_blocked_cycles::no_mshrs          nan                       # average number of cycles each access was blocked
system.cpu.dtb_walker_cache.avg_blocked_cycles::no_targets          nan                       # average number of cycles each access was blocked
system.cpu.dtb_walker_cache.fast_writes             0                       # number of fast writes performed
system.cpu.dtb_walker_cache.cache_copies            0                       # number of cache copies performed
system.cpu.dtb_walker_cache.no_allocate_misses            0                       # Number of misses that were no-allocate
system.cpu.icache.tags.replacements                31                       # number of replacements
system.cpu.icache.tags.tagsinuse           612.922919                       # Cycle average of tags in use
system.cpu.icache.tags.total_refs           677317269                       # Total number of references to valid blocks.
system.cpu.icache.tags.sampled_refs               677                       # Sample count of references to valid blocks.
system.cpu.icache.tags.avg_refs          1000468.639586                       # Average number of references to valid blocks.
system.cpu.icache.tags.warmup_cycle                 0                       # Cycle when the warmup percentage was hit.
system.cpu.icache.tags.occ_blocks::cpu.inst   612.922919                       # Average occupied blocks per requestor
system.cpu.icache.tags.occ_percent::cpu.inst     0.598558                       # Average percentage of cache occupancy
system.cpu.icache.tags.occ_percent::total     0.598558                       # Average percentage of cache occupancy
system.cpu.icache.tags.occ_task_id_blocks::1024          646                       # Occupied blocks per task id
system.cpu.icache.tags.age_task_id_blocks_1024::4          646                       # Occupied blocks per task id
system.cpu.icache.tags.occ_task_id_percent::1024     0.630859                       # Percentage of cache occupancy per task id
system.cpu.icache.tags.tag_accesses        2709272461                       # Number of tag accesses
system.cpu.icache.tags.data_accesses       2709272461                       # Number of data accesses
system.cpu.icache.ReadReq_hits::cpu.inst    677317269                       # number of ReadReq hits
system.cpu.icache.ReadReq_hits::total       677317269                       # number of ReadReq hits
system.cpu.icache.demand_hits::cpu.inst     677317269                       # number of demand (read+write) hits
system.cpu.icache.demand_hits::total        677317269                       # number of demand (read+write) hits
system.cpu.icache.overall_hits::cpu.inst    677317269                       # number of overall hits
system.cpu.icache.overall_hits::total       677317269                       # number of overall hits
system.cpu.icache.ReadReq_misses::cpu.inst          677                       # number of ReadReq misses
system.cpu.icache.ReadReq_misses::total           677                       # number of ReadReq misses
system.cpu.icache.demand_misses::cpu.inst          677                       # number of demand (read+write) misses
system.cpu.icache.demand_misses::total            677                       # number of demand (read+write) misses
system.cpu.icache.overall_misses::cpu.inst          677                       # number of overall misses
system.cpu.icache.overall_misses::total           677                       # number of overall misses
system.cpu.icache.ReadReq_miss_latency::cpu.inst     53507000                       # number of ReadReq miss cycles
system.cpu.icache.ReadReq_miss_latency::total     53507000                       # number of ReadReq miss cycles
system.cpu.icache.demand_miss_latency::cpu.inst     53507000                       # number of demand (read+write) miss cycles
system.cpu.icache.demand_miss_latency::total     53507000                       # number of demand (read+write) miss cycles
system.cpu.icache.overall_miss_latency::cpu.inst     53507000                       # number of overall miss cycles
system.cpu.icache.overall_miss_latency::total     53507000                       # number of overall miss cycles
system.cpu.icache.ReadReq_accesses::cpu.inst    677317946                       # number of ReadReq accesses(hits+misses)
system.cpu.icache.ReadReq_accesses::total    677317946                       # number of ReadReq accesses(hits+misses)
system.cpu.icache.demand_accesses::cpu.inst    677317946                       # number of demand (read+write) accesses
system.cpu.icache.demand_accesses::total    677317946                       # number of demand (read+write) accesses
system.cpu.icache.overall_accesses::cpu.inst    677317946                       # number of overall (read+write) accesses
system.cpu.icache.overall_accesses::total    677317946                       # number of overall (read+write) accesses
system.cpu.icache.ReadReq_miss_rate::cpu.inst     0.000001                       # miss rate for ReadReq accesses
system.cpu.icache.ReadReq_miss_rate::total     0.000001                       # miss rate for ReadReq accesses
system.cpu.icache.demand_miss_rate::cpu.inst     0.000001                       # miss rate for demand accesses
system.cpu.icache.demand_miss_rate::total     0.000001                       # miss rate for demand accesses
system.cpu.icache.overall_miss_rate::cpu.inst     0.000001                       # miss rate for overall accesses
system.cpu.icache.overall_miss_rate::total     0.000001                       # miss rate for overall accesses
system.cpu.icache.ReadReq_avg_miss_latency::cpu.inst 79035.450517                       # average ReadReq miss latency
system.cpu.icache.ReadReq_avg_miss_latency::total 79035.450517                       # average ReadReq miss latency
system.cpu.icache.demand_avg_miss_latency::cpu.inst 79035.450517                       # average overall miss latency
system.cpu.icache.demand_avg_miss_latency::total 79035.450517                       # average overall miss latency
system.cpu.icache.overall_avg_miss_latency::cpu.inst 79035.450517                       # average overall miss latency
system.cpu.icache.overall_avg_miss_latency::total 79035.450517                       # average overall miss latency
system.cpu.icache.blocked_cycles::no_mshrs            0                       # number of cycles access was blocked
system.cpu.icache.blocked_cycles::no_targets            0                       # number of cycles access was blocked
system.cpu.icache.blocked::no_mshrs                 0                       # number of cycles access was blocked
system.cpu.icache.blocked::no_targets               0                       # number of cycles access was blocked
system.cpu.icache.avg_blocked_cycles::no_mshrs          nan                       # average number of cycles each access was blocked
system.cpu.icache.avg_blocked_cycles::no_targets          nan                       # average number of cycles each access was blocked
system.cpu.icache.fast_writes                       0                       # number of fast writes performed
system.cpu.icache.cache_copies                      0                       # number of cache copies performed
system.cpu.icache.writebacks::writebacks           31                       # number of writebacks
system.cpu.icache.writebacks::total                31                       # number of writebacks
system.cpu.icache.ReadReq_mshr_misses::cpu.inst          677                       # number of ReadReq MSHR misses
system.cpu.icache.ReadReq_mshr_misses::total          677                       # number of ReadReq MSHR misses
system.cpu.icache.demand_mshr_misses::cpu.inst          677                       # number of demand (read+write) MSHR misses
system.cpu.icache.demand_mshr_misses::total          677                       # number of demand (read+write) MSHR misses
system.cpu.icache.overall_mshr_misses::cpu.inst          677                       # number of overall MSHR misses
system.cpu.icache.overall_mshr_misses::total          677                       # number of overall MSHR misses
system.cpu.icache.ReadReq_mshr_miss_latency::cpu.inst     52830000                       # number of ReadReq MSHR miss cycles
system.cpu.icache.ReadReq_mshr_miss_latency::total     52830000                       # number of ReadReq MSHR miss cycles
system.cpu.icache.demand_mshr_miss_latency::cpu.inst     52830000                       # number of demand (read+write) MSHR miss cycles
system.cpu.icache.demand_mshr_miss_latency::total     52830000                       # number of demand (read+write) MSHR miss cycles
system.cpu.icache.overall_mshr_miss_latency::cpu.inst     52830000                       # number of overall MSHR miss cycles
system.cpu.icache.overall_mshr_miss_latency::total     52830000                       # number of overall MSHR miss cycles
system.cpu.icache.ReadReq_mshr_miss_rate::cpu.inst     0.000001                       # mshr miss rate for ReadReq accesses
system.cpu.icache.ReadReq_mshr_miss_rate::total     0.000001                       # mshr miss rate for ReadReq accesses
system.cpu.icache.demand_mshr_miss_rate::cpu.inst     0.000001                       # mshr miss rate for demand accesses
system.cpu.icache.demand_mshr_miss_rate::total     0.000001                       # mshr miss rate for demand accesses
system.cpu.icache.overall_mshr_miss_rate::cpu.inst     0.000001                       # mshr miss rate for overall accesses
system.cpu.icache.overall_mshr_miss_rate::total     0.000001                       # mshr miss rate for overall accesses
system.cpu.icache.ReadReq_avg_mshr_miss_latency::cpu.inst 78035.450517                       # average ReadReq mshr miss latency
system.cpu.icache.ReadReq_avg_mshr_miss_latency::total 78035.450517                       # average ReadReq mshr miss latency
system.cpu.icache.demand_avg_mshr_miss_latency::cpu.inst 78035.450517                       # average overall mshr miss latency
system.cpu.icache.demand_avg_mshr_miss_latency::total 78035.450517                       # average overall mshr miss latency
system.cpu.icache.overall_avg_mshr_miss_latency::cpu.inst 78035.450517                       # average overall mshr miss latency
system.cpu.icache.overall_avg_mshr_miss_latency::total 78035.450517                       # average overall mshr miss latency
system.cpu.icache.no_allocate_misses                0                       # Number of misses that were no-allocate
system.cpu.itb_walker_cache.tags.replacements            0                       # number of replacements
system.cpu.itb_walker_cache.tags.tagsinuse            0                       # Cycle average of tags in use
system.cpu.itb_walker_cache.tags.total_refs            0                       # Total number of references to valid blocks.
system.cpu.itb_walker_cache.tags.sampled_refs            0                       # Sample count of references to valid blocks.
system.cpu.itb_walker_cache.tags.avg_refs          nan                       # Average number of references to valid blocks.
system.cpu.itb_walker_cache.tags.warmup_cycle            0                       # Cycle when the warmup percentage was hit.
system.cpu.itb_walker_cache.tags.tag_accesses            0                       # Number of tag accesses
system.cpu.itb_walker_cache.tags.data_accesses            0                       # Number of data accesses
system.cpu.itb_walker_cache.blocked_cycles::no_mshrs            0                       # number of cycles access was blocked
system.cpu.itb_walker_cache.blocked_cycles::no_targets            0                       # number of cycles access was blocked
system.cpu.itb_walker_cache.blocked::no_mshrs            0                       # number of cycles access was blocked
system.cpu.itb_walker_cache.blocked::no_targets            0                       # number of cycles access was blocked
system.cpu.itb_walker_cache.avg_blocked_cycles::no_mshrs          nan                       # average number of cycles each access was blocked
system.cpu.itb_walker_cache.avg_blocked_cycles::no_targets          nan                       # average number of cycles each access was blocked
system.cpu.itb_walker_cache.fast_writes             0                       # number of fast writes performed
system.cpu.itb_walker_cache.cache_copies            0                       # number of cache copies performed
system.cpu.itb_walker_cache.no_allocate_misses            0                       # Number of misses that were no-allocate
system.l2.tags.replacements                   7030430                       # number of replacements
system.l2.tags.tagsinuse                  8177.616412                       # Cycle average of tags in use
system.l2.tags.total_refs                    11909102                       # Total number of references to valid blocks.
system.l2.tags.sampled_refs                   7038622                       # Sample count of references to valid blocks.
system.l2.tags.avg_refs                      1.691965                       # Average number of references to valid blocks.
system.l2.tags.warmup_cycle                5199872000                       # Cycle when the warmup percentage was hit.
system.l2.tags.occ_blocks::writebacks     1354.356428                       # Average occupied blocks per requestor
system.l2.tags.occ_blocks::cpu.inst          1.789084                       # Average occupied blocks per requestor
system.l2.tags.occ_blocks::cpu.data       6821.470899                       # Average occupied blocks per requestor
system.l2.tags.occ_percent::writebacks       0.165327                       # Average percentage of cache occupancy
system.l2.tags.occ_percent::cpu.inst         0.000218                       # Average percentage of cache occupancy
system.l2.tags.occ_percent::cpu.data         0.832699                       # Average percentage of cache occupancy
system.l2.tags.occ_percent::total            0.998244                       # Average percentage of cache occupancy
system.l2.tags.occ_task_id_blocks::1024          8192                       # Occupied blocks per task id
system.l2.tags.age_task_id_blocks_1024::1          421                       # Occupied blocks per task id
system.l2.tags.age_task_id_blocks_1024::2         4110                       # Occupied blocks per task id
system.l2.tags.age_task_id_blocks_1024::3         3504                       # Occupied blocks per task id
system.l2.tags.age_task_id_blocks_1024::4          157                       # Occupied blocks per task id
system.l2.tags.occ_task_id_percent::1024            1                       # Percentage of cache occupancy per task id
system.l2.tags.tag_accesses               78942627678                       # Number of tag accesses
system.l2.tags.data_accesses              78942627678                       # Number of data accesses
system.l2.WritebackDirty_hits::writebacks      1739358                       # number of WritebackDirty hits
system.l2.WritebackDirty_hits::total          1739358                       # number of WritebackDirty hits
system.l2.WritebackClean_hits::writebacks           31                       # number of WritebackClean hits
system.l2.WritebackClean_hits::total               31                       # number of WritebackClean hits
system.l2.ReadExReq_hits::cpu.data              51956                       # number of ReadExReq hits
system.l2.ReadExReq_hits::total                 51956                       # number of ReadExReq hits
system.l2.ReadCleanReq_hits::cpu.inst               2                       # number of ReadCleanReq hits
system.l2.ReadCleanReq_hits::total                  2                       # number of ReadCleanReq hits
system.l2.ReadSharedReq_hits::cpu.data        2575844                       # number of ReadSharedReq hits
system.l2.ReadSharedReq_hits::total           2575844                       # number of ReadSharedReq hits
system.l2.demand_hits::cpu.inst                     2                       # number of demand (read+write) hits
system.l2.demand_hits::cpu.data               2627800                       # number of demand (read+write) hits
system.l2.demand_hits::total                  2627802                       # number of demand (read+write) hits
system.l2.overall_hits::cpu.inst                    2                       # number of overall hits
system.l2.overall_hits::cpu.data              2627800                       # number of overall hits
system.l2.overall_hits::total                 2627802                       # number of overall hits
system.l2.ReadExReq_misses::cpu.data           222668                       # number of ReadExReq misses
system.l2.ReadExReq_misses::total              222668                       # number of ReadExReq misses
system.l2.ReadCleanReq_misses::cpu.inst           675                       # number of ReadCleanReq misses
system.l2.ReadCleanReq_misses::total              675                       # number of ReadCleanReq misses
system.l2.ReadSharedReq_misses::cpu.data      6785861                       # number of ReadSharedReq misses
system.l2.ReadSharedReq_misses::total         6785861                       # number of ReadSharedReq misses
system.l2.demand_misses::cpu.inst                 675                       # number of demand (read+write) misses
system.l2.demand_misses::cpu.data             7008529                       # number of demand (read+write) misses
system.l2.demand_misses::total                7009204                       # number of demand (read+write) misses
system.l2.overall_misses::cpu.inst                675                       # number of overall misses
system.l2.overall_misses::cpu.data            7008529                       # number of overall misses
system.l2.overall_misses::total               7009204                       # number of overall misses
system.l2.ReadExReq_miss_latency::cpu.data  17703649500                       # number of ReadExReq miss cycles
system.l2.ReadExReq_miss_latency::total   17703649500                       # number of ReadExReq miss cycles
system.l2.ReadCleanReq_miss_latency::cpu.inst     51790000                       # number of ReadCleanReq miss cycles
system.l2.ReadCleanReq_miss_latency::total     51790000                       # number of ReadCleanReq miss cycles
system.l2.ReadSharedReq_miss_latency::cpu.data 621763396500                       # number of ReadSharedReq miss cycles
system.l2.ReadSharedReq_miss_latency::total 621763396500                       # number of ReadSharedReq miss cycles
system.l2.demand_miss_latency::cpu.inst      51790000                       # number of demand (read+write) miss cycles
system.l2.demand_miss_latency::cpu.data  639467046000                       # number of demand (read+write) miss cycles
system.l2.demand_miss_latency::total     639518836000                       # number of demand (read+write) miss cycles
system.l2.overall_miss_latency::cpu.inst     51790000                       # number of overall miss cycles
system.l2.overall_miss_latency::cpu.data 639467046000                       # number of overall miss cycles
system.l2.overall_miss_latency::total    639518836000                       # number of overall miss cycles
system.l2.WritebackDirty_accesses::writebacks      1739358                       # number of WritebackDirty accesses(hits+misses)
system.l2.WritebackDirty_accesses::total      1739358                       # number of WritebackDirty accesses(hits+misses)
system.l2.WritebackClean_accesses::writebacks           31                       # number of WritebackClean accesses(hits+misses)
system.l2.WritebackClean_accesses::total           31                       # number of WritebackClean accesses(hits+misses)
system.l2.ReadExReq_accesses::cpu.data         274624                       # number of ReadExReq accesses(hits+misses)
system.l2.ReadExReq_accesses::total            274624                       # number of ReadExReq accesses(hits+misses)
system.l2.ReadCleanReq_accesses::cpu.inst          677                       # number of ReadCleanReq accesses(hits+misses)
system.l2.ReadCleanReq_accesses::total            677                       # number of ReadCleanReq accesses(hits+misses)
system.l2.ReadSharedReq_accesses::cpu.data      9361705                       # number of ReadSharedReq accesses(hits+misses)
system.l2.ReadSharedReq_accesses::total       9361705                       # number of ReadSharedReq accesses(hits+misses)
system.l2.demand_accesses::cpu.inst               677                       # number of demand (read+write) accesses
system.l2.demand_accesses::cpu.data           9636329                       # number of demand (read+write) accesses
system.l2.demand_accesses::total              9637006                       # number of demand (read+write) accesses
system.l2.overall_accesses::cpu.inst              677                       # number of overall (read+write) accesses
system.l2.overall_accesses::cpu.data          9636329                       # number of overall (read+write) accesses
system.l2.overall_accesses::total             9637006                       # number of overall (read+write) accesses
system.l2.ReadExReq_miss_rate::cpu.data      0.810810                       # miss rate for ReadExReq accesses
system.l2.ReadExReq_miss_rate::total         0.810810                       # miss rate for ReadExReq accesses
system.l2.ReadCleanReq_miss_rate::cpu.inst     0.997046                       # miss rate for ReadCleanReq accesses
system.l2.ReadCleanReq_miss_rate::total      0.997046                       # miss rate for ReadCleanReq accesses
system.l2.ReadSharedReq_miss_rate::cpu.data     0.724853                       # miss rate for ReadSharedReq accesses
system.l2.ReadSharedReq_miss_rate::total     0.724853                       # miss rate for ReadSharedReq accesses
system.l2.demand_miss_rate::cpu.inst         0.997046                       # miss rate for demand accesses
system.l2.demand_miss_rate::cpu.data         0.727303                       # miss rate for demand accesses
system.l2.demand_miss_rate::total            0.727322                       # miss rate for demand accesses
system.l2.overall_miss_rate::cpu.inst        0.997046                       # miss rate for overall accesses
system.l2.overall_miss_rate::cpu.data        0.727303                       # miss rate for overall accesses
system.l2.overall_miss_rate::total           0.727322                       # miss rate for overall accesses
system.l2.ReadExReq_avg_miss_latency::cpu.data 79506.931845                       # average ReadExReq miss latency
system.l2.ReadExReq_avg_miss_latency::total 79506.931845                       # average ReadExReq miss latency
system.l2.ReadCleanReq_avg_miss_latency::cpu.inst 76725.925926                       # average ReadCleanReq miss latency
system.l2.ReadCleanReq_avg_miss_latency::total 76725.925926                       # average ReadCleanReq miss latency
system.l2.ReadSharedReq_avg_miss_latency::cpu.data 91626.308953                       # average ReadSharedReq miss latency
system.l2.ReadSharedReq_avg_miss_latency::total 91626.308953                       # average ReadSharedReq miss latency
system.l2.demand_avg_miss_latency::cpu.inst 76725.925926                       # average overall miss latency
system.l2.demand_avg_miss_latency::cpu.data 91241.264180                       # average overall miss latency
system.l2.demand_avg_miss_latency::total 91239.866324                       # average overall miss latency
system.l2.overall_avg_miss_latency::cpu.inst 76725.925926                       # average overall miss latency
system.l2.overall_avg_miss_latency::cpu.data 91241.264180                       # average overall miss latency
system.l2.overall_avg_miss_latency::total 91239.866324                       # average overall miss latency
system.l2.blocked_cycles::no_mshrs                  0                       # number of cycles access was blocked
system.l2.blocked_cycles::no_targets                0                       # number of cycles access was blocked
system.l2.blocked::no_mshrs                         0                       # number of cycles access was blocked
system.l2.blocked::no_targets                       0                       # number of cycles access was blocked
system.l2.avg_blocked_cycles::no_mshrs            nan                       # average number of cycles each access was blocked
system.l2.avg_blocked_cycles::no_targets          nan                       # average number of cycles each access was blocked
system.l2.fast_writes                               0                       # number of fast writes performed
system.l2.cache_copies                              0                       # number of cache copies performed
system.l2.writebacks::writebacks              1190105                       # number of writebacks
system.l2.writebacks::total                   1190105                       # number of writebacks
system.l2.CleanEvict_mshr_misses::writebacks        48969                       # number of CleanEvict MSHR misses
system.l2.CleanEvict_mshr_misses::total         48969                       # number of CleanEvict MSHR misses
system.l2.ReadExReq_mshr_misses::cpu.data       222668                       # number of ReadExReq MSHR misses
system.l2.ReadExReq_mshr_misses::total         222668                       # number of ReadExReq MSHR misses
system.l2.ReadCleanReq_mshr_misses::cpu.inst          675                       # number of ReadCleanReq MSHR misses
system.l2.ReadCleanReq_mshr_misses::total          675                       # number of ReadCleanReq MSHR misses
system.l2.ReadSharedReq_mshr_misses::cpu.data      6785861                       # number of ReadSharedReq MSHR misses
system.l2.ReadSharedReq_mshr_misses::total      6785861                       # number of ReadSharedReq MSHR misses
system.l2.demand_mshr_misses::cpu.inst            675                       # number of demand (read+write) MSHR misses
system.l2.demand_mshr_misses::cpu.data        7008529                       # number of demand (read+write) MSHR misses
system.l2.demand_mshr_misses::total           7009204                       # number of demand (read+write) MSHR misses
system.l2.overall_mshr_misses::cpu.inst           675                       # number of overall MSHR misses
system.l2.overall_mshr_misses::cpu.data       7008529                       # number of overall MSHR misses
system.l2.overall_mshr_misses::total          7009204                       # number of overall MSHR misses
system.l2.ReadExReq_mshr_miss_latency::cpu.data  15476969500                       # number of ReadExReq MSHR miss cycles
system.l2.ReadExReq_mshr_miss_latency::total  15476969500                       # number of ReadExReq MSHR miss cycles
system.l2.ReadCleanReq_mshr_miss_latency::cpu.inst     45040000                       # number of ReadCleanReq MSHR miss cycles
system.l2.ReadCleanReq_mshr_miss_latency::total     45040000                       # number of ReadCleanReq MSHR miss cycles
system.l2.ReadSharedReq_mshr_miss_latency::cpu.data 553904786500                       # number of ReadSharedReq MSHR miss cycles
system.l2.ReadSharedReq_mshr_miss_latency::total 553904786500                       # number of ReadSharedReq MSHR miss cycles
system.l2.demand_mshr_miss_latency::cpu.inst     45040000                       # number of demand (read+write) MSHR miss cycles
system.l2.demand_mshr_miss_latency::cpu.data 569381756000                       # number of demand (read+write) MSHR miss cycles
system.l2.demand_mshr_miss_latency::total 569426796000                       # number of demand (read+write) MSHR miss cycles
system.l2.overall_mshr_miss_latency::cpu.inst     45040000                       # number of overall MSHR miss cycles
system.l2.overall_mshr_miss_latency::cpu.data 569381756000                       # number of overall MSHR miss cycles
system.l2.overall_mshr_miss_latency::total 569426796000                       # number of overall MSHR miss cycles
system.l2.CleanEvict_mshr_miss_rate::writebacks          inf                       # mshr miss rate for CleanEvict accesses
system.l2.CleanEvict_mshr_miss_rate::total          inf                       # mshr miss rate for CleanEvict accesses
system.l2.ReadExReq_mshr_miss_rate::cpu.data     0.810810                       # mshr miss rate for ReadExReq accesses
system.l2.ReadExReq_mshr_miss_rate::total     0.810810                       # mshr miss rate for ReadExReq accesses
system.l2.ReadCleanReq_mshr_miss_rate::cpu.inst     0.997046                       # mshr miss rate for ReadCleanReq accesses
system.l2.ReadCleanReq_mshr_miss_rate::total     0.997046                       # mshr miss rate for ReadCleanReq accesses
system.l2.ReadSharedReq_mshr_miss_rate::cpu.data     0.724853                       # mshr miss rate for ReadSharedReq accesses
system.l2.ReadSharedReq_mshr_miss_rate::total     0.724853                       # mshr miss rate for ReadSharedReq accesses
system.l2.demand_mshr_miss_rate::cpu.inst     0.997046                       # mshr miss rate for demand accesses
system.l2.demand_mshr_miss_rate::cpu.data     0.727303                       # mshr miss rate for demand accesses
system.l2.demand_mshr_miss_rate::total       0.727322                       # mshr miss rate for demand accesses
system.l2.overall_mshr_miss_rate::cpu.inst     0.997046                       # mshr miss rate for overall accesses
system.l2.overall_mshr_miss_rate::cpu.data     0.727303                       # mshr miss rate for overall accesses
system.l2.overall_mshr_miss_rate::total      0.727322                       # mshr miss rate for overall accesses
system.l2.ReadExReq_avg_mshr_miss_latency::cpu.data 69506.931845                       # average ReadExReq mshr miss latency
system.l2.ReadExReq_avg_mshr_miss_latency::total 69506.931845                       # average ReadExReq mshr miss latency
system.l2.ReadCleanReq_avg_mshr_miss_latency::cpu.inst 66725.925926                       # average ReadCleanReq mshr miss latency
system.l2.ReadCleanReq_avg_mshr_miss_latency::total 66725.925926                       # average ReadCleanReq mshr miss latency
system.l2.ReadSharedReq_avg_mshr_miss_latency::cpu.data 81626.308953                       # average ReadSharedReq mshr miss latency
system.l2.ReadSharedReq_avg_mshr_miss_latency::total 81626.308953                       # average ReadSharedReq mshr miss latency
system.l2.demand_avg_mshr_miss_latency::cpu.inst 66725.925926                       # average overall mshr miss latency
system.l2.demand_avg_mshr_miss_latency::cpu.data 81241.264180                       # average overall mshr miss latency
system.l2.demand_avg_mshr_miss_latency::total 81239.866324                       # average overall mshr miss latency
system.l2.overall_avg_mshr_miss_latency::cpu.inst 66725.925926                       # average overall mshr miss latency
system.l2.overall_avg_mshr_miss_latency::cpu.data 81241.264180                       # average overall mshr miss latency
system.l2.overall_avg_mshr_miss_latency::total 81239.866324                       # average overall mshr miss latency
system.l2.no_allocate_misses                        0                       # Number of misses that were no-allocate
system.membus.trans_dist::ReadResp            6786536                       # Transaction distribution
system.membus.trans_dist::WritebackDirty      1190105                       # Transaction distribution
system.membus.trans_dist::CleanEvict          5810149                       # Transaction distribution
system.membus.trans_dist::ReadExReq            222668                       # Transaction distribution
system.membus.trans_dist::ReadExResp           222668                       # Transaction distribution
system.membus.trans_dist::ReadSharedReq       6786536                       # Transaction distribution
system.membus.pkt_count_system.l2.mem_side::system.mem_ctrls.port     21018662                       # Packet count per connected master and slave (bytes)
system.membus.pkt_count_system.l2.mem_side::total     21018662                       # Packet count per connected master and slave (bytes)
system.membus.pkt_count::total               21018662                       # Packet count per connected master and slave (bytes)
system.membus.pkt_size_system.l2.mem_side::system.mem_ctrls.port    524755776                       # Cumulative packet size per connected master and slave (bytes)
system.membus.pkt_size_system.l2.mem_side::total    524755776                       # Cumulative packet size per connected master and slave (bytes)
system.membus.pkt_size::total               524755776                       # Cumulative packet size per connected master and slave (bytes)
system.membus.snoops                                0                       # Total snoops (count)
system.membus.snoop_fanout::samples          14009458                       # Request fanout histogram
system.membus.snoop_fanout::mean                    0                       # Request fanout histogram
system.membus.snoop_fanout::stdev                   0                       # Request fanout histogram
system.membus.snoop_fanout::underflows              0      0.00%      0.00% # Request fanout histogram
system.membus.snoop_fanout::0                14009458    100.00%    100.00% # Request fanout histogram
system.membus.snoop_fanout::1                       0      0.00%    100.00% # Request fanout histogram
system.membus.snoop_fanout::overflows               0      0.00%    100.00% # Request fanout histogram
system.membus.snoop_fanout::min_value               0                       # Request fanout histogram
system.membus.snoop_fanout::max_value               0                       # Request fanout histogram
system.membus.snoop_fanout::total            14009458                       # Request fanout histogram
system.membus.reqLayer2.occupancy         18776943000                       # Layer occupancy (ticks)
system.membus.reqLayer2.utilization               1.1                       # Layer utilization (%)
system.membus.respLayer1.occupancy        39071528750                       # Layer occupancy (ticks)
system.membus.respLayer1.utilization              2.4                       # Layer utilization (%)
system.tol2bus.snoop_filter.tot_requests     19271318                       # Total number of requests made to the snoop filter.
system.tol2bus.snoop_filter.hit_single_requests      9634312                       # Number of requests hitting in the snoop filter with a single holder of the requested data.
system.tol2bus.snoop_filter.hit_multi_requests            1                       # Number of requests hitting in the snoop filter with multiple (>1) holders of the requested data.
system.tol2bus.snoop_filter.tot_snoops          79145                       # Total number of snoops made to the snoop filter.
system.tol2bus.snoop_filter.hit_single_snoops        79145                       # Number of snoops hitting in the snoop filter with a single holder of the requested data.
system.tol2bus.snoop_filter.hit_multi_snoops            0                       # Number of snoops hitting in the snoop filter with multiple (>1) holders of the requested data.
system.tol2bus.trans_dist::ReadResp           9362382                       # Transaction distribution
system.tol2bus.trans_dist::WritebackDirty      2929463                       # Transaction distribution
system.tol2bus.trans_dist::WritebackClean           31                       # Transaction distribution
system.tol2bus.trans_dist::CleanEvict        13735247                       # Transaction distribution
system.tol2bus.trans_dist::ReadExReq           274624                       # Transaction distribution
system.tol2bus.trans_dist::ReadExResp          274624                       # Transaction distribution
system.tol2bus.trans_dist::ReadCleanReq           677                       # Transaction distribution
system.tol2bus.trans_dist::ReadSharedReq      9361705                       # Transaction distribution
system.tol2bus.pkt_count_system.cpu.icache.mem_side::system.l2.cpu_side         1385                       # Packet count per connected master and slave (bytes)
system.tol2bus.pkt_count_system.cpu.dcache.mem_side::system.l2.cpu_side     28906938                       # Packet count per connected master and slave (bytes)
system.tol2bus.pkt_count::total              28908323                       # Packet count per connected master and slave (bytes)
system.tol2bus.pkt_size_system.cpu.icache.mem_side::system.l2.cpu_side        45312                       # Cumulative packet size per connected master and slave (bytes)
system.tol2bus.pkt_size_system.cpu.dcache.mem_side::system.l2.cpu_side    728043968                       # Cumulative packet size per connected master and slave (bytes)
system.tol2bus.pkt_size::total              728089280                       # Cumulative packet size per connected master and slave (bytes)
system.tol2bus.snoops                         7030430                       # Total snoops (count)
system.tol2bus.snoop_fanout::samples         16667436                       # Request fanout histogram
system.tol2bus.snoop_fanout::mean            0.004749                       # Request fanout histogram
system.tol2bus.snoop_fanout::stdev           0.068746                       # Request fanout histogram
system.tol2bus.snoop_fanout::underflows             0      0.00%      0.00% # Request fanout histogram
system.tol2bus.snoop_fanout::0               16588290     99.53%     99.53% # Request fanout histogram
system.tol2bus.snoop_fanout::1                  79146      0.47%    100.00% # Request fanout histogram
system.tol2bus.snoop_fanout::2                      0      0.00%    100.00% # Request fanout histogram
system.tol2bus.snoop_fanout::3                      0      0.00%    100.00% # Request fanout histogram
system.tol2bus.snoop_fanout::4                      0      0.00%    100.00% # Request fanout histogram
system.tol2bus.snoop_fanout::overflows              0      0.00%    100.00% # Request fanout histogram
system.tol2bus.snoop_fanout::min_value              0                       # Request fanout histogram
system.tol2bus.snoop_fanout::max_value              1                       # Request fanout histogram
system.tol2bus.snoop_fanout::total           16667436                       # Request fanout histogram
system.tol2bus.reqLayer0.occupancy        11375048000                       # Layer occupancy (ticks)
system.tol2bus.reqLayer0.utilization              0.7                       # Layer utilization (%)
system.tol2bus.respLayer0.occupancy           1015500                       # Layer occupancy (ticks)
system.tol2bus.respLayer0.utilization             0.0                       # Layer utilization (%)
system.tol2bus.respLayer1.occupancy       14454493500                       # Layer occupancy (ticks)
system.tol2bus.respLayer1.utilization             0.9                       # Layer utilization (%)

---------- End Simulation Statistics   ----------
