
---------- Begin Simulation Statistics ----------
sim_seconds                                  1.118201                       # Number of seconds simulated
sim_ticks                                1118201165500                       # Number of ticks simulated
final_tick                               1118201165500                       # Number of ticks from beginning of simulation (restored from checkpoints and never reset)
sim_freq                                 1000000000000                       # Frequency of simulated ticks
host_inst_rate                                  37138                       # Simulator instruction rate (inst/s)
host_op_rate                                    54255                       # Simulator op (including micro ops) rate (op/s)
host_tick_rate                               83055950                       # Simulator tick rate (ticks/s)
host_mem_usage                                 828676                       # Number of bytes of host memory used
host_seconds                                 13463.23                       # Real time elapsed on the host
sim_insts                                   500000001                       # Number of instructions simulated
sim_ops                                     730450447                       # Number of ops (including micro ops) simulated
system.voltage_domain.voltage                       1                       # Voltage in Volts
system.clk_domain.clock                          1000                       # Clock period in ticks
system.mem_ctrls.bytes_read::cpu.inst          238080                       # Number of bytes read from this memory
system.mem_ctrls.bytes_read::cpu.data        48224320                       # Number of bytes read from this memory
system.mem_ctrls.bytes_read::total           48462400                       # Number of bytes read from this memory
system.mem_ctrls.bytes_inst_read::cpu.inst       238080                       # Number of instructions bytes read from this memory
system.mem_ctrls.bytes_inst_read::total        238080                       # Number of instructions bytes read from this memory
system.mem_ctrls.bytes_written::writebacks     24920640                       # Number of bytes written to this memory
system.mem_ctrls.bytes_written::total        24920640                       # Number of bytes written to this memory
system.mem_ctrls.num_reads::cpu.inst             3720                       # Number of read requests responded to by this memory
system.mem_ctrls.num_reads::cpu.data           753505                       # Number of read requests responded to by this memory
system.mem_ctrls.num_reads::total              757225                       # Number of read requests responded to by this memory
system.mem_ctrls.num_writes::writebacks        389385                       # Number of write requests responded to by this memory
system.mem_ctrls.num_writes::total             389385                       # Number of write requests responded to by this memory
system.mem_ctrls.bw_read::cpu.inst             212913                       # Total read bandwidth from this memory (bytes/s)
system.mem_ctrls.bw_read::cpu.data           43126694                       # Total read bandwidth from this memory (bytes/s)
system.mem_ctrls.bw_read::total              43339608                       # Total read bandwidth from this memory (bytes/s)
system.mem_ctrls.bw_inst_read::cpu.inst        212913                       # Instruction read bandwidth from this memory (bytes/s)
system.mem_ctrls.bw_inst_read::total           212913                       # Instruction read bandwidth from this memory (bytes/s)
system.mem_ctrls.bw_write::writebacks        22286366                       # Write bandwidth from this memory (bytes/s)
system.mem_ctrls.bw_write::total             22286366                       # Write bandwidth from this memory (bytes/s)
system.mem_ctrls.bw_total::writebacks        22286366                       # Total bandwidth to/from this memory (bytes/s)
system.mem_ctrls.bw_total::cpu.inst            212913                       # Total bandwidth to/from this memory (bytes/s)
system.mem_ctrls.bw_total::cpu.data          43126694                       # Total bandwidth to/from this memory (bytes/s)
system.mem_ctrls.bw_total::total             65625973                       # Total bandwidth to/from this memory (bytes/s)
system.mem_ctrls.readReqs                      757225                       # Number of read requests accepted
system.mem_ctrls.writeReqs                     389385                       # Number of write requests accepted
system.mem_ctrls.readBursts                    757225                       # Number of DRAM read bursts, including those serviced by the write queue
system.mem_ctrls.writeBursts                   389385                       # Number of DRAM write bursts, including those merged in the write queue
system.mem_ctrls.bytesReadDRAM               48361600                       # Total number of bytes read from DRAM
system.mem_ctrls.bytesReadWrQ                  100800                       # Total number of bytes read from write queue
system.mem_ctrls.bytesWritten                24916672                       # Total number of bytes written to DRAM
system.mem_ctrls.bytesReadSys                48462400                       # Total read bytes from the system interface side
system.mem_ctrls.bytesWrittenSys             24920640                       # Total written bytes from the system interface side
system.mem_ctrls.servicedByWrQ                   1575                       # Number of DRAM read bursts serviced by the write queue
system.mem_ctrls.mergedWrBursts                    32                       # Number of DRAM write bursts merged with an existing one
system.mem_ctrls.neitherReadNorWriteReqs       351453                       # Number of requests that are neither read nor write
system.mem_ctrls.perBankRdBursts::0             49034                       # Per bank write bursts
system.mem_ctrls.perBankRdBursts::1             48363                       # Per bank write bursts
system.mem_ctrls.perBankRdBursts::2             51468                       # Per bank write bursts
system.mem_ctrls.perBankRdBursts::3             45133                       # Per bank write bursts
system.mem_ctrls.perBankRdBursts::4             44496                       # Per bank write bursts
system.mem_ctrls.perBankRdBursts::5             44172                       # Per bank write bursts
system.mem_ctrls.perBankRdBursts::6             46564                       # Per bank write bursts
system.mem_ctrls.perBankRdBursts::7             45585                       # Per bank write bursts
system.mem_ctrls.perBankRdBursts::8             43025                       # Per bank write bursts
system.mem_ctrls.perBankRdBursts::9             43389                       # Per bank write bursts
system.mem_ctrls.perBankRdBursts::10            47183                       # Per bank write bursts
system.mem_ctrls.perBankRdBursts::11            47743                       # Per bank write bursts
system.mem_ctrls.perBankRdBursts::12            49423                       # Per bank write bursts
system.mem_ctrls.perBankRdBursts::13            49367                       # Per bank write bursts
system.mem_ctrls.perBankRdBursts::14            49772                       # Per bank write bursts
system.mem_ctrls.perBankRdBursts::15            50933                       # Per bank write bursts
system.mem_ctrls.perBankWrBursts::0             25151                       # Per bank write bursts
system.mem_ctrls.perBankWrBursts::1             24842                       # Per bank write bursts
system.mem_ctrls.perBankWrBursts::2             26293                       # Per bank write bursts
system.mem_ctrls.perBankWrBursts::3             23767                       # Per bank write bursts
system.mem_ctrls.perBankWrBursts::4             23151                       # Per bank write bursts
system.mem_ctrls.perBankWrBursts::5             22681                       # Per bank write bursts
system.mem_ctrls.perBankWrBursts::6             23926                       # Per bank write bursts
system.mem_ctrls.perBankWrBursts::7             23832                       # Per bank write bursts
system.mem_ctrls.perBankWrBursts::8             22881                       # Per bank write bursts
system.mem_ctrls.perBankWrBursts::9             22997                       # Per bank write bursts
system.mem_ctrls.perBankWrBursts::10            24359                       # Per bank write bursts
system.mem_ctrls.perBankWrBursts::11            24133                       # Per bank write bursts
system.mem_ctrls.perBankWrBursts::12            24701                       # Per bank write bursts
system.mem_ctrls.perBankWrBursts::13            25019                       # Per bank write bursts
system.mem_ctrls.perBankWrBursts::14            25284                       # Per bank write bursts
system.mem_ctrls.perBankWrBursts::15            26306                       # Per bank write bursts
system.mem_ctrls.numRdRetry                         0                       # Number of times read queue was full causing retry
system.mem_ctrls.numWrRetry                         0                       # Number of times write queue was full causing retry
system.mem_ctrls.totGap                  1118168410500                       # Total gap between requests
system.mem_ctrls.readPktSize::0                     0                       # Read request sizes (log2)
system.mem_ctrls.readPktSize::1                     0                       # Read request sizes (log2)
system.mem_ctrls.readPktSize::2                     0                       # Read request sizes (log2)
system.mem_ctrls.readPktSize::3                     0                       # Read request sizes (log2)
system.mem_ctrls.readPktSize::4                     0                       # Read request sizes (log2)
system.mem_ctrls.readPktSize::5                     0                       # Read request sizes (log2)
system.mem_ctrls.readPktSize::6                757225                       # Read request sizes (log2)
system.mem_ctrls.writePktSize::0                    0                       # Write request sizes (log2)
system.mem_ctrls.writePktSize::1                    0                       # Write request sizes (log2)
system.mem_ctrls.writePktSize::2                    0                       # Write request sizes (log2)
system.mem_ctrls.writePktSize::3                    0                       # Write request sizes (log2)
system.mem_ctrls.writePktSize::4                    0                       # Write request sizes (log2)
system.mem_ctrls.writePktSize::5                    0                       # Write request sizes (log2)
system.mem_ctrls.writePktSize::6               389385                       # Write request sizes (log2)
system.mem_ctrls.rdQLenPdf::0                  746959                       # What read queue length does an incoming req see
system.mem_ctrls.rdQLenPdf::1                    8098                       # What read queue length does an incoming req see
system.mem_ctrls.rdQLenPdf::2                     487                       # What read queue length does an incoming req see
system.mem_ctrls.rdQLenPdf::3                     106                       # What read queue length does an incoming req see
system.mem_ctrls.rdQLenPdf::4                       0                       # What read queue length does an incoming req see
system.mem_ctrls.rdQLenPdf::5                       0                       # What read queue length does an incoming req see
system.mem_ctrls.rdQLenPdf::6                       0                       # What read queue length does an incoming req see
system.mem_ctrls.rdQLenPdf::7                       0                       # What read queue length does an incoming req see
system.mem_ctrls.rdQLenPdf::8                       0                       # What read queue length does an incoming req see
system.mem_ctrls.rdQLenPdf::9                       0                       # What read queue length does an incoming req see
system.mem_ctrls.rdQLenPdf::10                      0                       # What read queue length does an incoming req see
system.mem_ctrls.rdQLenPdf::11                      0                       # What read queue length does an incoming req see
system.mem_ctrls.rdQLenPdf::12                      0                       # What read queue length does an incoming req see
system.mem_ctrls.rdQLenPdf::13                      0                       # What read queue length does an incoming req see
system.mem_ctrls.rdQLenPdf::14                      0                       # What read queue length does an incoming req see
system.mem_ctrls.rdQLenPdf::15                      0                       # What read queue length does an incoming req see
system.mem_ctrls.rdQLenPdf::16                      0                       # What read queue length does an incoming req see
system.mem_ctrls.rdQLenPdf::17                      0                       # What read queue length does an incoming req see
system.mem_ctrls.rdQLenPdf::18                      0                       # What read queue length does an incoming req see
system.mem_ctrls.rdQLenPdf::19                      0                       # What read queue length does an incoming req see
system.mem_ctrls.rdQLenPdf::20                      0                       # What read queue length does an incoming req see
system.mem_ctrls.rdQLenPdf::21                      0                       # What read queue length does an incoming req see
system.mem_ctrls.rdQLenPdf::22                      0                       # What read queue length does an incoming req see
system.mem_ctrls.rdQLenPdf::23                      0                       # What read queue length does an incoming req see
system.mem_ctrls.rdQLenPdf::24                      0                       # What read queue length does an incoming req see
system.mem_ctrls.rdQLenPdf::25                      0                       # What read queue length does an incoming req see
system.mem_ctrls.rdQLenPdf::26                      0                       # What read queue length does an incoming req see
system.mem_ctrls.rdQLenPdf::27                      0                       # What read queue length does an incoming req see
system.mem_ctrls.rdQLenPdf::28                      0                       # What read queue length does an incoming req see
system.mem_ctrls.rdQLenPdf::29                      0                       # What read queue length does an incoming req see
system.mem_ctrls.rdQLenPdf::30                      0                       # What read queue length does an incoming req see
system.mem_ctrls.rdQLenPdf::31                      0                       # What read queue length does an incoming req see
system.mem_ctrls.wrQLenPdf::0                       1                       # What write queue length does an incoming req see
system.mem_ctrls.wrQLenPdf::1                       1                       # What write queue length does an incoming req see
system.mem_ctrls.wrQLenPdf::2                       1                       # What write queue length does an incoming req see
system.mem_ctrls.wrQLenPdf::3                       1                       # What write queue length does an incoming req see
system.mem_ctrls.wrQLenPdf::4                       1                       # What write queue length does an incoming req see
system.mem_ctrls.wrQLenPdf::5                       1                       # What write queue length does an incoming req see
system.mem_ctrls.wrQLenPdf::6                       1                       # What write queue length does an incoming req see
system.mem_ctrls.wrQLenPdf::7                       1                       # What write queue length does an incoming req see
system.mem_ctrls.wrQLenPdf::8                       1                       # What write queue length does an incoming req see
system.mem_ctrls.wrQLenPdf::9                       1                       # What write queue length does an incoming req see
system.mem_ctrls.wrQLenPdf::10                      1                       # What write queue length does an incoming req see
system.mem_ctrls.wrQLenPdf::11                      1                       # What write queue length does an incoming req see
system.mem_ctrls.wrQLenPdf::12                      1                       # What write queue length does an incoming req see
system.mem_ctrls.wrQLenPdf::13                      1                       # What write queue length does an incoming req see
system.mem_ctrls.wrQLenPdf::14                      1                       # What write queue length does an incoming req see
system.mem_ctrls.wrQLenPdf::15                  14912                       # What write queue length does an incoming req see
system.mem_ctrls.wrQLenPdf::16                  15736                       # What write queue length does an incoming req see
system.mem_ctrls.wrQLenPdf::17                  22371                       # What write queue length does an incoming req see
system.mem_ctrls.wrQLenPdf::18                  22427                       # What write queue length does an incoming req see
system.mem_ctrls.wrQLenPdf::19                  22422                       # What write queue length does an incoming req see
system.mem_ctrls.wrQLenPdf::20                  22402                       # What write queue length does an incoming req see
system.mem_ctrls.wrQLenPdf::21                  22404                       # What write queue length does an incoming req see
system.mem_ctrls.wrQLenPdf::22                  22395                       # What write queue length does an incoming req see
system.mem_ctrls.wrQLenPdf::23                  22398                       # What write queue length does an incoming req see
system.mem_ctrls.wrQLenPdf::24                  22394                       # What write queue length does an incoming req see
system.mem_ctrls.wrQLenPdf::25                  22407                       # What write queue length does an incoming req see
system.mem_ctrls.wrQLenPdf::26                  22414                       # What write queue length does an incoming req see
system.mem_ctrls.wrQLenPdf::27                  22514                       # What write queue length does an incoming req see
system.mem_ctrls.wrQLenPdf::28                  22560                       # What write queue length does an incoming req see
system.mem_ctrls.wrQLenPdf::29                  22402                       # What write queue length does an incoming req see
system.mem_ctrls.wrQLenPdf::30                  22396                       # What write queue length does an incoming req see
system.mem_ctrls.wrQLenPdf::31                  22389                       # What write queue length does an incoming req see
system.mem_ctrls.wrQLenPdf::32                  22389                       # What write queue length does an incoming req see
system.mem_ctrls.wrQLenPdf::33                      6                       # What write queue length does an incoming req see
system.mem_ctrls.wrQLenPdf::34                      0                       # What write queue length does an incoming req see
system.mem_ctrls.wrQLenPdf::35                      0                       # What write queue length does an incoming req see
system.mem_ctrls.wrQLenPdf::36                      0                       # What write queue length does an incoming req see
system.mem_ctrls.wrQLenPdf::37                      0                       # What write queue length does an incoming req see
system.mem_ctrls.wrQLenPdf::38                      0                       # What write queue length does an incoming req see
system.mem_ctrls.wrQLenPdf::39                      0                       # What write queue length does an incoming req see
system.mem_ctrls.wrQLenPdf::40                      0                       # What write queue length does an incoming req see
system.mem_ctrls.wrQLenPdf::41                      0                       # What write queue length does an incoming req see
system.mem_ctrls.wrQLenPdf::42                      0                       # What write queue length does an incoming req see
system.mem_ctrls.wrQLenPdf::43                      0                       # What write queue length does an incoming req see
system.mem_ctrls.wrQLenPdf::44                      0                       # What write queue length does an incoming req see
system.mem_ctrls.wrQLenPdf::45                      0                       # What write queue length does an incoming req see
system.mem_ctrls.wrQLenPdf::46                      0                       # What write queue length does an incoming req see
system.mem_ctrls.wrQLenPdf::47                      0                       # What write queue length does an incoming req see
system.mem_ctrls.wrQLenPdf::48                      0                       # What write queue length does an incoming req see
system.mem_ctrls.wrQLenPdf::49                      0                       # What write queue length does an incoming req see
system.mem_ctrls.wrQLenPdf::50                      0                       # What write queue length does an incoming req see
system.mem_ctrls.wrQLenPdf::51                      0                       # What write queue length does an incoming req see
system.mem_ctrls.wrQLenPdf::52                      0                       # What write queue length does an incoming req see
system.mem_ctrls.wrQLenPdf::53                      0                       # What write queue length does an incoming req see
system.mem_ctrls.wrQLenPdf::54                      0                       # What write queue length does an incoming req see
system.mem_ctrls.wrQLenPdf::55                      0                       # What write queue length does an incoming req see
system.mem_ctrls.wrQLenPdf::56                      0                       # What write queue length does an incoming req see
system.mem_ctrls.wrQLenPdf::57                      0                       # What write queue length does an incoming req see
system.mem_ctrls.wrQLenPdf::58                      0                       # What write queue length does an incoming req see
system.mem_ctrls.wrQLenPdf::59                      0                       # What write queue length does an incoming req see
system.mem_ctrls.wrQLenPdf::60                      0                       # What write queue length does an incoming req see
system.mem_ctrls.wrQLenPdf::61                      0                       # What write queue length does an incoming req see
system.mem_ctrls.wrQLenPdf::62                      0                       # What write queue length does an incoming req see
system.mem_ctrls.wrQLenPdf::63                      0                       # What write queue length does an incoming req see
system.mem_ctrls.bytesPerActivate::samples       584169                       # Bytes accessed per row activation
system.mem_ctrls.bytesPerActivate::mean    125.440193                       # Bytes accessed per row activation
system.mem_ctrls.bytesPerActivate::gmean    92.068201                       # Bytes accessed per row activation
system.mem_ctrls.bytesPerActivate::stdev   155.023241                       # Bytes accessed per row activation
system.mem_ctrls.bytesPerActivate::0-127       404825     69.30%     69.30% # Bytes accessed per row activation
system.mem_ctrls.bytesPerActivate::128-255       117200     20.06%     89.36% # Bytes accessed per row activation
system.mem_ctrls.bytesPerActivate::256-383        26080      4.46%     93.83% # Bytes accessed per row activation
system.mem_ctrls.bytesPerActivate::384-511         9789      1.68%     95.50% # Bytes accessed per row activation
system.mem_ctrls.bytesPerActivate::512-639        12748      2.18%     97.68% # Bytes accessed per row activation
system.mem_ctrls.bytesPerActivate::640-767         2237      0.38%     98.07% # Bytes accessed per row activation
system.mem_ctrls.bytesPerActivate::768-895         1699      0.29%     98.36% # Bytes accessed per row activation
system.mem_ctrls.bytesPerActivate::896-1023         1403      0.24%     98.60% # Bytes accessed per row activation
system.mem_ctrls.bytesPerActivate::1024-1151         8188      1.40%    100.00% # Bytes accessed per row activation
system.mem_ctrls.bytesPerActivate::total       584169                       # Bytes accessed per row activation
system.mem_ctrls.rdPerTurnAround::samples        22389                       # Reads before turning the bus around for writes
system.mem_ctrls.rdPerTurnAround::mean      32.972308                       # Reads before turning the bus around for writes
system.mem_ctrls.rdPerTurnAround::gmean     25.711022                       # Reads before turning the bus around for writes
system.mem_ctrls.rdPerTurnAround::stdev    106.471341                       # Reads before turning the bus around for writes
system.mem_ctrls.rdPerTurnAround::0-255         22244     99.35%     99.35% # Reads before turning the bus around for writes
system.mem_ctrls.rdPerTurnAround::256-511          108      0.48%     99.83% # Reads before turning the bus around for writes
system.mem_ctrls.rdPerTurnAround::512-767           27      0.12%     99.96% # Reads before turning the bus around for writes
system.mem_ctrls.rdPerTurnAround::768-1023            2      0.01%     99.96% # Reads before turning the bus around for writes
system.mem_ctrls.rdPerTurnAround::1024-1279            1      0.00%     99.97% # Reads before turning the bus around for writes
system.mem_ctrls.rdPerTurnAround::1280-1535            1      0.00%     99.97% # Reads before turning the bus around for writes
system.mem_ctrls.rdPerTurnAround::1536-1791            1      0.00%     99.98% # Reads before turning the bus around for writes
system.mem_ctrls.rdPerTurnAround::2816-3071            1      0.00%     99.98% # Reads before turning the bus around for writes
system.mem_ctrls.rdPerTurnAround::5632-5887            1      0.00%     99.99% # Reads before turning the bus around for writes
system.mem_ctrls.rdPerTurnAround::7168-7423            1      0.00%     99.99% # Reads before turning the bus around for writes
system.mem_ctrls.rdPerTurnAround::7680-7935            1      0.00%    100.00% # Reads before turning the bus around for writes
system.mem_ctrls.rdPerTurnAround::7936-8191            1      0.00%    100.00% # Reads before turning the bus around for writes
system.mem_ctrls.rdPerTurnAround::total         22389                       # Reads before turning the bus around for writes
system.mem_ctrls.wrPerTurnAround::samples        22389                       # Writes before turning the bus around for reads
system.mem_ctrls.wrPerTurnAround::mean      17.389030                       # Writes before turning the bus around for reads
system.mem_ctrls.wrPerTurnAround::gmean     17.363314                       # Writes before turning the bus around for reads
system.mem_ctrls.wrPerTurnAround::stdev      0.933312                       # Writes before turning the bus around for reads
system.mem_ctrls.wrPerTurnAround::16             6647     29.69%     29.69% # Writes before turning the bus around for reads
system.mem_ctrls.wrPerTurnAround::17              821      3.67%     33.36% # Writes before turning the bus around for reads
system.mem_ctrls.wrPerTurnAround::18            14492     64.73%     98.08% # Writes before turning the bus around for reads
system.mem_ctrls.wrPerTurnAround::19              422      1.88%     99.97% # Writes before turning the bus around for reads
system.mem_ctrls.wrPerTurnAround::20                7      0.03%    100.00% # Writes before turning the bus around for reads
system.mem_ctrls.wrPerTurnAround::total         22389                       # Writes before turning the bus around for reads
system.mem_ctrls.totQLat                  11150646500                       # Total ticks spent queuing
system.mem_ctrls.totMemAccLat             25319084000                       # Total ticks spent from burst creation until serviced by the DRAM
system.mem_ctrls.totBusLat                 3778250000                       # Total ticks spent in databus transfers
system.mem_ctrls.avgQLat                     14756.36                       # Average queueing delay per DRAM burst
system.mem_ctrls.avgBusLat                    5000.00                       # Average bus latency per DRAM burst
system.mem_ctrls.avgMemAccLat                33506.36                       # Average memory access latency per DRAM burst
system.mem_ctrls.avgRdBW                        43.25                       # Average DRAM read bandwidth in MiByte/s
system.mem_ctrls.avgWrBW                        22.28                       # Average achieved write bandwidth in MiByte/s
system.mem_ctrls.avgRdBWSys                     43.34                       # Average system read bandwidth in MiByte/s
system.mem_ctrls.avgWrBWSys                     22.29                       # Average system write bandwidth in MiByte/s
system.mem_ctrls.peakBW                      12800.00                       # Theoretical peak bandwidth in MiByte/s
system.mem_ctrls.busUtil                         0.51                       # Data bus utilization in percentage
system.mem_ctrls.busUtilRead                     0.34                       # Data bus utilization in percentage for reads
system.mem_ctrls.busUtilWrite                    0.17                       # Data bus utilization in percentage for writes
system.mem_ctrls.avgRdQLen                       1.00                       # Average read queue length when enqueuing
system.mem_ctrls.avgWrQLen                      23.08                       # Average write queue length when enqueuing
system.mem_ctrls.readRowHits                   356694                       # Number of row buffer hits during reads
system.mem_ctrls.writeRowHits                  204110                       # Number of row buffer hits during writes
system.mem_ctrls.readRowHitRate                 47.20                       # Row buffer hit rate for reads
system.mem_ctrls.writeRowHitRate                52.42                       # Row buffer hit rate for writes
system.mem_ctrls.avgGap                     975195.06                       # Average gap between requests
system.mem_ctrls.pageHitRate                    48.98                       # Row buffer hit rate, read and write combined
system.mem_ctrls_0.actEnergy               2186949240                       # Energy for activate commands per rank (pJ)
system.mem_ctrls_0.preEnergy               1193275875                       # Energy for precharge commands per rank (pJ)
system.mem_ctrls_0.readEnergy              2923557000                       # Energy for read commands per rank (pJ)
system.mem_ctrls_0.writeEnergy             1254806640                       # Energy for write commands per rank (pJ)
system.mem_ctrls_0.refreshEnergy          73035318720                       # Energy for refresh commands per rank (pJ)
system.mem_ctrls_0.actBackEnergy         232244146755                       # Energy for active background per rank (pJ)
system.mem_ctrls_0.preBackEnergy         467196573000                       # Energy for precharge background per rank (pJ)
system.mem_ctrls_0.totalEnergy           780034627230                       # Total energy per rank (pJ)
system.mem_ctrls_0.averagePower            697.581111                       # Core power per rank (mW)
system.mem_ctrls_0.memoryStateTime::IDLE 775818658250                       # Time in different power states
system.mem_ctrls_0.memoryStateTime::REF   37339120000                       # Time in different power states
system.mem_ctrls_0.memoryStateTime::PRE_PDN            0                       # Time in different power states
system.mem_ctrls_0.memoryStateTime::ACT  305041416750                       # Time in different power states
system.mem_ctrls_0.memoryStateTime::ACT_PDN            0                       # Time in different power states
system.mem_ctrls_1.actEnergy               2229368400                       # Energy for activate commands per rank (pJ)
system.mem_ctrls_1.preEnergy               1216421250                       # Energy for precharge commands per rank (pJ)
system.mem_ctrls_1.readEnergy              2970513000                       # Energy for read commands per rank (pJ)
system.mem_ctrls_1.writeEnergy             1268006400                       # Energy for write commands per rank (pJ)
system.mem_ctrls_1.refreshEnergy          73035318720                       # Energy for refresh commands per rank (pJ)
system.mem_ctrls_1.actBackEnergy         232564779450                       # Energy for active background per rank (pJ)
system.mem_ctrls_1.preBackEnergy         466915316250                       # Energy for precharge background per rank (pJ)
system.mem_ctrls_1.totalEnergy           780199723470                       # Total energy per rank (pJ)
system.mem_ctrls_1.averagePower            697.728756                       # Core power per rank (mW)
system.mem_ctrls_1.memoryStateTime::IDLE 775344554000                       # Time in different power states
system.mem_ctrls_1.memoryStateTime::REF   37339120000                       # Time in different power states
system.mem_ctrls_1.memoryStateTime::PRE_PDN            0                       # Time in different power states
system.mem_ctrls_1.memoryStateTime::ACT  305515521000                       # Time in different power states
system.mem_ctrls_1.memoryStateTime::ACT_PDN            0                       # Time in different power states
system.cpu_voltage_domain.voltage                   1                       # Voltage in Volts
system.cpu_clk_domain.clock                       500                       # Clock period in ticks
system.cpu.apic_clk_domain.clock                 8000                       # Clock period in ticks
system.cpu.workload.num_syscalls                   86                       # Number of system calls
system.cpu.numCycles                       2236402331                       # number of cpu cycles simulated
system.cpu.numWorkItemsStarted                      0                       # number of work items this cpu started
system.cpu.numWorkItemsCompleted                    0                       # number of work items this cpu completed
system.cpu.committedInsts                   500000001                       # Number of instructions committed
system.cpu.committedOps                     730450447                       # Number of ops (including micro ops) committed
system.cpu.num_int_alu_accesses             729688907                       # Number of integer alu accesses
system.cpu.num_fp_alu_accesses                    663                       # Number of float alu accesses
system.cpu.num_func_calls                     1453961                       # number of times a function call or return occured
system.cpu.num_conditional_control_insts     31770496                       # number of instructions that are conditional controls
system.cpu.num_int_insts                    729688907                       # number of integer instructions
system.cpu.num_fp_insts                           663                       # number of float instructions
system.cpu.num_int_register_reads          1698743410                       # number of times the integer registers were read
system.cpu.num_int_register_writes          621892952                       # number of times the integer registers were written
system.cpu.num_fp_register_reads                 1009                       # number of times the floating registers were read
system.cpu.num_fp_register_writes                 429                       # number of times the floating registers were written
system.cpu.num_cc_register_reads            180840558                       # number of times the CC registers were read
system.cpu.num_cc_register_writes           276245127                       # number of times the CC registers were written
system.cpu.num_mem_refs                     295985459                       # number of memory refs
system.cpu.num_load_insts                   225946750                       # Number of load instructions
system.cpu.num_store_insts                   70038709                       # Number of store instructions
system.cpu.num_idle_cycles                          0                       # Number of idle cycles
system.cpu.num_busy_cycles                 2236402331                       # Number of busy cycles
system.cpu.not_idle_fraction                        1                       # Percentage of non-idle cycles
system.cpu.idle_fraction                            0                       # Percentage of idle cycles
system.cpu.Branches                          37843296                       # Number of branches fetched
system.cpu.op_class::No_OpClass                 94739      0.01%      0.01% # Class of executed instruction
system.cpu.op_class::IntAlu                 434349070     59.46%     59.48% # Class of executed instruction
system.cpu.op_class::IntMult                    20662      0.00%     59.48% # Class of executed instruction
system.cpu.op_class::IntDiv                       119      0.00%     59.48% # Class of executed instruction
system.cpu.op_class::FloatAdd                     398      0.00%     59.48% # Class of executed instruction
system.cpu.op_class::FloatCmp                       0      0.00%     59.48% # Class of executed instruction
system.cpu.op_class::FloatCvt                       0      0.00%     59.48% # Class of executed instruction
system.cpu.op_class::FloatMult                      0      0.00%     59.48% # Class of executed instruction
system.cpu.op_class::FloatDiv                       0      0.00%     59.48% # Class of executed instruction
system.cpu.op_class::FloatSqrt                      0      0.00%     59.48% # Class of executed instruction
system.cpu.op_class::SimdAdd                        0      0.00%     59.48% # Class of executed instruction
system.cpu.op_class::SimdAddAcc                     0      0.00%     59.48% # Class of executed instruction
system.cpu.op_class::SimdAlu                        0      0.00%     59.48% # Class of executed instruction
system.cpu.op_class::SimdCmp                        0      0.00%     59.48% # Class of executed instruction
system.cpu.op_class::SimdCvt                        0      0.00%     59.48% # Class of executed instruction
system.cpu.op_class::SimdMisc                       0      0.00%     59.48% # Class of executed instruction
system.cpu.op_class::SimdMult                       0      0.00%     59.48% # Class of executed instruction
system.cpu.op_class::SimdMultAcc                    0      0.00%     59.48% # Class of executed instruction
system.cpu.op_class::SimdShift                      0      0.00%     59.48% # Class of executed instruction
system.cpu.op_class::SimdShiftAcc                   0      0.00%     59.48% # Class of executed instruction
system.cpu.op_class::SimdSqrt                       0      0.00%     59.48% # Class of executed instruction
system.cpu.op_class::SimdFloatAdd                   0      0.00%     59.48% # Class of executed instruction
system.cpu.op_class::SimdFloatAlu                   0      0.00%     59.48% # Class of executed instruction
system.cpu.op_class::SimdFloatCmp                   0      0.00%     59.48% # Class of executed instruction
system.cpu.op_class::SimdFloatCvt                   0      0.00%     59.48% # Class of executed instruction
system.cpu.op_class::SimdFloatDiv                   0      0.00%     59.48% # Class of executed instruction
system.cpu.op_class::SimdFloatMisc                  0      0.00%     59.48% # Class of executed instruction
system.cpu.op_class::SimdFloatMult                  0      0.00%     59.48% # Class of executed instruction
system.cpu.op_class::SimdFloatMultAcc               0      0.00%     59.48% # Class of executed instruction
system.cpu.op_class::SimdFloatSqrt                  0      0.00%     59.48% # Class of executed instruction
system.cpu.op_class::MemRead                225946750     30.93%     90.41% # Class of executed instruction
system.cpu.op_class::MemWrite                70038709      9.59%    100.00% # Class of executed instruction
system.cpu.op_class::IprAccess                      0      0.00%    100.00% # Class of executed instruction
system.cpu.op_class::InstPrefetch                   0      0.00%    100.00% # Class of executed instruction
system.cpu.op_class::total                  730450447                       # Class of executed instruction
system.cpu.dcache.tags.replacements           2042575                       # number of replacements
system.cpu.dcache.tags.tagsinuse          2042.494355                       # Cycle average of tags in use
system.cpu.dcache.tags.total_refs           293940844                       # Total number of references to valid blocks.
system.cpu.dcache.tags.sampled_refs           2044623                       # Sample count of references to valid blocks.
system.cpu.dcache.tags.avg_refs            143.762857                       # Average number of references to valid blocks.
system.cpu.dcache.tags.warmup_cycle        3524768500                       # Cycle when the warmup percentage was hit.
system.cpu.dcache.tags.occ_blocks::cpu.data  2042.494355                       # Average occupied blocks per requestor
system.cpu.dcache.tags.occ_percent::cpu.data     0.997312                       # Average percentage of cache occupancy
system.cpu.dcache.tags.occ_percent::total     0.997312                       # Average percentage of cache occupancy
system.cpu.dcache.tags.occ_task_id_blocks::1024         2048                       # Occupied blocks per task id
system.cpu.dcache.tags.age_task_id_blocks_1024::1            2                       # Occupied blocks per task id
system.cpu.dcache.tags.age_task_id_blocks_1024::2           16                       # Occupied blocks per task id
system.cpu.dcache.tags.age_task_id_blocks_1024::3         1218                       # Occupied blocks per task id
system.cpu.dcache.tags.age_task_id_blocks_1024::4          812                       # Occupied blocks per task id
system.cpu.dcache.tags.occ_task_id_percent::1024            1                       # Percentage of cache occupancy per task id
system.cpu.dcache.tags.tag_accesses         594015557                       # Number of tag accesses
system.cpu.dcache.tags.data_accesses        594015557                       # Number of data accesses
system.cpu.dcache.ReadReq_hits::cpu.data    224491119                       # number of ReadReq hits
system.cpu.dcache.ReadReq_hits::total       224491119                       # number of ReadReq hits
system.cpu.dcache.WriteReq_hits::cpu.data     69449725                       # number of WriteReq hits
system.cpu.dcache.WriteReq_hits::total       69449725                       # number of WriteReq hits
system.cpu.dcache.demand_hits::cpu.data     293940844                       # number of demand (read+write) hits
system.cpu.dcache.demand_hits::total        293940844                       # number of demand (read+write) hits
system.cpu.dcache.overall_hits::cpu.data    293940844                       # number of overall hits
system.cpu.dcache.overall_hits::total       293940844                       # number of overall hits
system.cpu.dcache.ReadReq_misses::cpu.data      1439254                       # number of ReadReq misses
system.cpu.dcache.ReadReq_misses::total       1439254                       # number of ReadReq misses
system.cpu.dcache.WriteReq_misses::cpu.data       588985                       # number of WriteReq misses
system.cpu.dcache.WriteReq_misses::total       588985                       # number of WriteReq misses
system.cpu.dcache.SoftPFReq_misses::cpu.data        16384                       # number of SoftPFReq misses
system.cpu.dcache.SoftPFReq_misses::total        16384                       # number of SoftPFReq misses
system.cpu.dcache.demand_misses::cpu.data      2028239                       # number of demand (read+write) misses
system.cpu.dcache.demand_misses::total        2028239                       # number of demand (read+write) misses
system.cpu.dcache.overall_misses::cpu.data      2044623                       # number of overall misses
system.cpu.dcache.overall_misses::total       2044623                       # number of overall misses
system.cpu.dcache.ReadReq_miss_latency::cpu.data  49428406500                       # number of ReadReq miss cycles
system.cpu.dcache.ReadReq_miss_latency::total  49428406500                       # number of ReadReq miss cycles
system.cpu.dcache.WriteReq_miss_latency::cpu.data  30741739500                       # number of WriteReq miss cycles
system.cpu.dcache.WriteReq_miss_latency::total  30741739500                       # number of WriteReq miss cycles
system.cpu.dcache.demand_miss_latency::cpu.data  80170146000                       # number of demand (read+write) miss cycles
system.cpu.dcache.demand_miss_latency::total  80170146000                       # number of demand (read+write) miss cycles
system.cpu.dcache.overall_miss_latency::cpu.data  80170146000                       # number of overall miss cycles
system.cpu.dcache.overall_miss_latency::total  80170146000                       # number of overall miss cycles
system.cpu.dcache.ReadReq_accesses::cpu.data    225930373                       # number of ReadReq accesses(hits+misses)
system.cpu.dcache.ReadReq_accesses::total    225930373                       # number of ReadReq accesses(hits+misses)
system.cpu.dcache.WriteReq_accesses::cpu.data     70038710                       # number of WriteReq accesses(hits+misses)
system.cpu.dcache.WriteReq_accesses::total     70038710                       # number of WriteReq accesses(hits+misses)
system.cpu.dcache.SoftPFReq_accesses::cpu.data        16384                       # number of SoftPFReq accesses(hits+misses)
system.cpu.dcache.SoftPFReq_accesses::total        16384                       # number of SoftPFReq accesses(hits+misses)
system.cpu.dcache.demand_accesses::cpu.data    295969083                       # number of demand (read+write) accesses
system.cpu.dcache.demand_accesses::total    295969083                       # number of demand (read+write) accesses
system.cpu.dcache.overall_accesses::cpu.data    295985467                       # number of overall (read+write) accesses
system.cpu.dcache.overall_accesses::total    295985467                       # number of overall (read+write) accesses
system.cpu.dcache.ReadReq_miss_rate::cpu.data     0.006370                       # miss rate for ReadReq accesses
system.cpu.dcache.ReadReq_miss_rate::total     0.006370                       # miss rate for ReadReq accesses
system.cpu.dcache.WriteReq_miss_rate::cpu.data     0.008409                       # miss rate for WriteReq accesses
system.cpu.dcache.WriteReq_miss_rate::total     0.008409                       # miss rate for WriteReq accesses
system.cpu.dcache.SoftPFReq_miss_rate::cpu.data            1                       # miss rate for SoftPFReq accesses
system.cpu.dcache.SoftPFReq_miss_rate::total            1                       # miss rate for SoftPFReq accesses
system.cpu.dcache.demand_miss_rate::cpu.data     0.006853                       # miss rate for demand accesses
system.cpu.dcache.demand_miss_rate::total     0.006853                       # miss rate for demand accesses
system.cpu.dcache.overall_miss_rate::cpu.data     0.006908                       # miss rate for overall accesses
system.cpu.dcache.overall_miss_rate::total     0.006908                       # miss rate for overall accesses
system.cpu.dcache.ReadReq_avg_miss_latency::cpu.data 34343.073912                       # average ReadReq miss latency
system.cpu.dcache.ReadReq_avg_miss_latency::total 34343.073912                       # average ReadReq miss latency
system.cpu.dcache.WriteReq_avg_miss_latency::cpu.data 52194.435342                       # average WriteReq miss latency
system.cpu.dcache.WriteReq_avg_miss_latency::total 52194.435342                       # average WriteReq miss latency
system.cpu.dcache.demand_avg_miss_latency::cpu.data 39526.971920                       # average overall miss latency
system.cpu.dcache.demand_avg_miss_latency::total 39526.971920                       # average overall miss latency
system.cpu.dcache.overall_avg_miss_latency::cpu.data 39210.233867                       # average overall miss latency
system.cpu.dcache.overall_avg_miss_latency::total 39210.233867                       # average overall miss latency
system.cpu.dcache.blocked_cycles::no_mshrs       230202                       # number of cycles access was blocked
system.cpu.dcache.blocked_cycles::no_targets            0                       # number of cycles access was blocked
system.cpu.dcache.blocked::no_mshrs              5499                       # number of cycles access was blocked
system.cpu.dcache.blocked::no_targets               0                       # number of cycles access was blocked
system.cpu.dcache.avg_blocked_cycles::no_mshrs    41.862520                       # average number of cycles each access was blocked
system.cpu.dcache.avg_blocked_cycles::no_targets          nan                       # average number of cycles each access was blocked
system.cpu.dcache.fast_writes                       0                       # number of fast writes performed
system.cpu.dcache.cache_copies                      0                       # number of cache copies performed
system.cpu.dcache.writebacks::writebacks       947815                       # number of writebacks
system.cpu.dcache.writebacks::total            947815                       # number of writebacks
system.cpu.dcache.ReadReq_mshr_misses::cpu.data      1439254                       # number of ReadReq MSHR misses
system.cpu.dcache.ReadReq_mshr_misses::total      1439254                       # number of ReadReq MSHR misses
system.cpu.dcache.WriteReq_mshr_misses::cpu.data       588985                       # number of WriteReq MSHR misses
system.cpu.dcache.WriteReq_mshr_misses::total       588985                       # number of WriteReq MSHR misses
system.cpu.dcache.SoftPFReq_mshr_misses::cpu.data        16384                       # number of SoftPFReq MSHR misses
system.cpu.dcache.SoftPFReq_mshr_misses::total        16384                       # number of SoftPFReq MSHR misses
system.cpu.dcache.demand_mshr_misses::cpu.data      2028239                       # number of demand (read+write) MSHR misses
system.cpu.dcache.demand_mshr_misses::total      2028239                       # number of demand (read+write) MSHR misses
system.cpu.dcache.overall_mshr_misses::cpu.data      2044623                       # number of overall MSHR misses
system.cpu.dcache.overall_mshr_misses::total      2044623                       # number of overall MSHR misses
system.cpu.dcache.ReadReq_mshr_miss_latency::cpu.data  47989152500                       # number of ReadReq MSHR miss cycles
system.cpu.dcache.ReadReq_mshr_miss_latency::total  47989152500                       # number of ReadReq MSHR miss cycles
system.cpu.dcache.WriteReq_mshr_miss_latency::cpu.data  30152754500                       # number of WriteReq MSHR miss cycles
system.cpu.dcache.WriteReq_mshr_miss_latency::total  30152754500                       # number of WriteReq MSHR miss cycles
system.cpu.dcache.SoftPFReq_mshr_miss_latency::cpu.data   1281647954                       # number of SoftPFReq MSHR miss cycles
system.cpu.dcache.SoftPFReq_mshr_miss_latency::total   1281647954                       # number of SoftPFReq MSHR miss cycles
system.cpu.dcache.demand_mshr_miss_latency::cpu.data  78141907000                       # number of demand (read+write) MSHR miss cycles
system.cpu.dcache.demand_mshr_miss_latency::total  78141907000                       # number of demand (read+write) MSHR miss cycles
system.cpu.dcache.overall_mshr_miss_latency::cpu.data  79423554954                       # number of overall MSHR miss cycles
system.cpu.dcache.overall_mshr_miss_latency::total  79423554954                       # number of overall MSHR miss cycles
system.cpu.dcache.ReadReq_mshr_miss_rate::cpu.data     0.006370                       # mshr miss rate for ReadReq accesses
system.cpu.dcache.ReadReq_mshr_miss_rate::total     0.006370                       # mshr miss rate for ReadReq accesses
system.cpu.dcache.WriteReq_mshr_miss_rate::cpu.data     0.008409                       # mshr miss rate for WriteReq accesses
system.cpu.dcache.WriteReq_mshr_miss_rate::total     0.008409                       # mshr miss rate for WriteReq accesses
system.cpu.dcache.SoftPFReq_mshr_miss_rate::cpu.data            1                       # mshr miss rate for SoftPFReq accesses
system.cpu.dcache.SoftPFReq_mshr_miss_rate::total            1                       # mshr miss rate for SoftPFReq accesses
system.cpu.dcache.demand_mshr_miss_rate::cpu.data     0.006853                       # mshr miss rate for demand accesses
system.cpu.dcache.demand_mshr_miss_rate::total     0.006853                       # mshr miss rate for demand accesses
system.cpu.dcache.overall_mshr_miss_rate::cpu.data     0.006908                       # mshr miss rate for overall accesses
system.cpu.dcache.overall_mshr_miss_rate::total     0.006908                       # mshr miss rate for overall accesses
system.cpu.dcache.ReadReq_avg_mshr_miss_latency::cpu.data 33343.073912                       # average ReadReq mshr miss latency
system.cpu.dcache.ReadReq_avg_mshr_miss_latency::total 33343.073912                       # average ReadReq mshr miss latency
system.cpu.dcache.WriteReq_avg_mshr_miss_latency::cpu.data 51194.435342                       # average WriteReq mshr miss latency
system.cpu.dcache.WriteReq_avg_mshr_miss_latency::total 51194.435342                       # average WriteReq mshr miss latency
system.cpu.dcache.SoftPFReq_avg_mshr_miss_latency::cpu.data 78225.583130                       # average SoftPFReq mshr miss latency
system.cpu.dcache.SoftPFReq_avg_mshr_miss_latency::total 78225.583130                       # average SoftPFReq mshr miss latency
system.cpu.dcache.demand_avg_mshr_miss_latency::cpu.data 38526.971920                       # average overall mshr miss latency
system.cpu.dcache.demand_avg_mshr_miss_latency::total 38526.971920                       # average overall mshr miss latency
system.cpu.dcache.overall_avg_mshr_miss_latency::cpu.data 38845.085355                       # average overall mshr miss latency
system.cpu.dcache.overall_avg_mshr_miss_latency::total 38845.085355                       # average overall mshr miss latency
system.cpu.dcache.no_allocate_misses                0                       # Number of misses that were no-allocate
system.cpu.dtb_walker_cache.tags.replacements            0                       # number of replacements
system.cpu.dtb_walker_cache.tags.tagsinuse            0                       # Cycle average of tags in use
system.cpu.dtb_walker_cache.tags.total_refs            0                       # Total number of references to valid blocks.
system.cpu.dtb_walker_cache.tags.sampled_refs            0                       # Sample count of references to valid blocks.
system.cpu.dtb_walker_cache.tags.avg_refs          nan                       # Average number of references to valid blocks.
system.cpu.dtb_walker_cache.tags.warmup_cycle            0                       # Cycle when the warmup percentage was hit.
system.cpu.dtb_walker_cache.tags.tag_accesses            0                       # Number of tag accesses
system.cpu.dtb_walker_cache.tags.data_accesses            0                       # Number of data accesses
system.cpu.dtb_walker_cache.blocked_cycles::no_mshrs            0                       # number of cycles access was blocked
system.cpu.dtb_walker_cache.blocked_cycles::no_targets            0                       # number of cycles access was blocked
system.cpu.dtb_walker_cache.blocked::no_mshrs            0                       # number of cycles access was blocked
system.cpu.dtb_walker_cache.blocked::no_targets            0                       # number of cycles access was blocked
system.cpu.dtb_walker_cache.avg_blocked_cycles::no_mshrs          nan                       # average number of cycles each access was blocked
system.cpu.dtb_walker_cache.avg_blocked_cycles::no_targets          nan                       # average number of cycles each access was blocked
system.cpu.dtb_walker_cache.fast_writes             0                       # number of fast writes performed
system.cpu.dtb_walker_cache.cache_copies            0                       # number of cache copies performed
system.cpu.dtb_walker_cache.no_allocate_misses            0                       # Number of misses that were no-allocate
system.cpu.icache.tags.replacements           4691386                       # number of replacements
system.cpu.icache.tags.tagsinuse           127.995334                       # Cycle average of tags in use
system.cpu.icache.tags.total_refs           682706349                       # Total number of references to valid blocks.
system.cpu.icache.tags.sampled_refs           4691514                       # Sample count of references to valid blocks.
system.cpu.icache.tags.avg_refs            145.519410                       # Average number of references to valid blocks.
system.cpu.icache.tags.warmup_cycle        3427391500                       # Cycle when the warmup percentage was hit.
system.cpu.icache.tags.occ_blocks::cpu.inst   127.995334                       # Average occupied blocks per requestor
system.cpu.icache.tags.occ_percent::cpu.inst     0.999964                       # Average percentage of cache occupancy
system.cpu.icache.tags.occ_percent::total     0.999964                       # Average percentage of cache occupancy
system.cpu.icache.tags.occ_task_id_blocks::1024          128                       # Occupied blocks per task id
system.cpu.icache.tags.age_task_id_blocks_1024::1            7                       # Occupied blocks per task id
system.cpu.icache.tags.age_task_id_blocks_1024::3          121                       # Occupied blocks per task id
system.cpu.icache.tags.occ_task_id_percent::1024            1                       # Percentage of cache occupancy per task id
system.cpu.icache.tags.tag_accesses        1379487240                       # Number of tag accesses
system.cpu.icache.tags.data_accesses       1379487240                       # Number of data accesses
system.cpu.icache.ReadReq_hits::cpu.inst    682706349                       # number of ReadReq hits
system.cpu.icache.ReadReq_hits::total       682706349                       # number of ReadReq hits
system.cpu.icache.demand_hits::cpu.inst     682706349                       # number of demand (read+write) hits
system.cpu.icache.demand_hits::total        682706349                       # number of demand (read+write) hits
system.cpu.icache.overall_hits::cpu.inst    682706349                       # number of overall hits
system.cpu.icache.overall_hits::total       682706349                       # number of overall hits
system.cpu.icache.ReadReq_misses::cpu.inst      4691514                       # number of ReadReq misses
system.cpu.icache.ReadReq_misses::total       4691514                       # number of ReadReq misses
system.cpu.icache.demand_misses::cpu.inst      4691514                       # number of demand (read+write) misses
system.cpu.icache.demand_misses::total        4691514                       # number of demand (read+write) misses
system.cpu.icache.overall_misses::cpu.inst      4691514                       # number of overall misses
system.cpu.icache.overall_misses::total       4691514                       # number of overall misses
system.cpu.icache.ReadReq_miss_latency::cpu.inst  61260302500                       # number of ReadReq miss cycles
system.cpu.icache.ReadReq_miss_latency::total  61260302500                       # number of ReadReq miss cycles
system.cpu.icache.demand_miss_latency::cpu.inst  61260302500                       # number of demand (read+write) miss cycles
system.cpu.icache.demand_miss_latency::total  61260302500                       # number of demand (read+write) miss cycles
system.cpu.icache.overall_miss_latency::cpu.inst  61260302500                       # number of overall miss cycles
system.cpu.icache.overall_miss_latency::total  61260302500                       # number of overall miss cycles
system.cpu.icache.ReadReq_accesses::cpu.inst    687397863                       # number of ReadReq accesses(hits+misses)
system.cpu.icache.ReadReq_accesses::total    687397863                       # number of ReadReq accesses(hits+misses)
system.cpu.icache.demand_accesses::cpu.inst    687397863                       # number of demand (read+write) accesses
system.cpu.icache.demand_accesses::total    687397863                       # number of demand (read+write) accesses
system.cpu.icache.overall_accesses::cpu.inst    687397863                       # number of overall (read+write) accesses
system.cpu.icache.overall_accesses::total    687397863                       # number of overall (read+write) accesses
system.cpu.icache.ReadReq_miss_rate::cpu.inst     0.006825                       # miss rate for ReadReq accesses
system.cpu.icache.ReadReq_miss_rate::total     0.006825                       # miss rate for ReadReq accesses
system.cpu.icache.demand_miss_rate::cpu.inst     0.006825                       # miss rate for demand accesses
system.cpu.icache.demand_miss_rate::total     0.006825                       # miss rate for demand accesses
system.cpu.icache.overall_miss_rate::cpu.inst     0.006825                       # miss rate for overall accesses
system.cpu.icache.overall_miss_rate::total     0.006825                       # miss rate for overall accesses
system.cpu.icache.ReadReq_avg_miss_latency::cpu.inst 13057.682978                       # average ReadReq miss latency
system.cpu.icache.ReadReq_avg_miss_latency::total 13057.682978                       # average ReadReq miss latency
system.cpu.icache.demand_avg_miss_latency::cpu.inst 13057.682978                       # average overall miss latency
system.cpu.icache.demand_avg_miss_latency::total 13057.682978                       # average overall miss latency
system.cpu.icache.overall_avg_miss_latency::cpu.inst 13057.682978                       # average overall miss latency
system.cpu.icache.overall_avg_miss_latency::total 13057.682978                       # average overall miss latency
system.cpu.icache.blocked_cycles::no_mshrs            0                       # number of cycles access was blocked
system.cpu.icache.blocked_cycles::no_targets            0                       # number of cycles access was blocked
system.cpu.icache.blocked::no_mshrs                 0                       # number of cycles access was blocked
system.cpu.icache.blocked::no_targets               0                       # number of cycles access was blocked
system.cpu.icache.avg_blocked_cycles::no_mshrs          nan                       # average number of cycles each access was blocked
system.cpu.icache.avg_blocked_cycles::no_targets          nan                       # average number of cycles each access was blocked
system.cpu.icache.fast_writes                       0                       # number of fast writes performed
system.cpu.icache.cache_copies                      0                       # number of cache copies performed
system.cpu.icache.writebacks::writebacks      4691386                       # number of writebacks
system.cpu.icache.writebacks::total           4691386                       # number of writebacks
system.cpu.icache.ReadReq_mshr_misses::cpu.inst      4691514                       # number of ReadReq MSHR misses
system.cpu.icache.ReadReq_mshr_misses::total      4691514                       # number of ReadReq MSHR misses
system.cpu.icache.demand_mshr_misses::cpu.inst      4691514                       # number of demand (read+write) MSHR misses
system.cpu.icache.demand_mshr_misses::total      4691514                       # number of demand (read+write) MSHR misses
system.cpu.icache.overall_mshr_misses::cpu.inst      4691514                       # number of overall MSHR misses
system.cpu.icache.overall_mshr_misses::total      4691514                       # number of overall MSHR misses
system.cpu.icache.ReadReq_mshr_miss_latency::cpu.inst  56568788500                       # number of ReadReq MSHR miss cycles
system.cpu.icache.ReadReq_mshr_miss_latency::total  56568788500                       # number of ReadReq MSHR miss cycles
system.cpu.icache.demand_mshr_miss_latency::cpu.inst  56568788500                       # number of demand (read+write) MSHR miss cycles
system.cpu.icache.demand_mshr_miss_latency::total  56568788500                       # number of demand (read+write) MSHR miss cycles
system.cpu.icache.overall_mshr_miss_latency::cpu.inst  56568788500                       # number of overall MSHR miss cycles
system.cpu.icache.overall_mshr_miss_latency::total  56568788500                       # number of overall MSHR miss cycles
system.cpu.icache.ReadReq_mshr_miss_rate::cpu.inst     0.006825                       # mshr miss rate for ReadReq accesses
system.cpu.icache.ReadReq_mshr_miss_rate::total     0.006825                       # mshr miss rate for ReadReq accesses
system.cpu.icache.demand_mshr_miss_rate::cpu.inst     0.006825                       # mshr miss rate for demand accesses
system.cpu.icache.demand_mshr_miss_rate::total     0.006825                       # mshr miss rate for demand accesses
system.cpu.icache.overall_mshr_miss_rate::cpu.inst     0.006825                       # mshr miss rate for overall accesses
system.cpu.icache.overall_mshr_miss_rate::total     0.006825                       # mshr miss rate for overall accesses
system.cpu.icache.ReadReq_avg_mshr_miss_latency::cpu.inst 12057.682978                       # average ReadReq mshr miss latency
system.cpu.icache.ReadReq_avg_mshr_miss_latency::total 12057.682978                       # average ReadReq mshr miss latency
system.cpu.icache.demand_avg_mshr_miss_latency::cpu.inst 12057.682978                       # average overall mshr miss latency
system.cpu.icache.demand_avg_mshr_miss_latency::total 12057.682978                       # average overall mshr miss latency
system.cpu.icache.overall_avg_mshr_miss_latency::cpu.inst 12057.682978                       # average overall mshr miss latency
system.cpu.icache.overall_avg_mshr_miss_latency::total 12057.682978                       # average overall mshr miss latency
system.cpu.icache.no_allocate_misses                0                       # Number of misses that were no-allocate
system.cpu.itb_walker_cache.tags.replacements            0                       # number of replacements
system.cpu.itb_walker_cache.tags.tagsinuse            0                       # Cycle average of tags in use
system.cpu.itb_walker_cache.tags.total_refs            0                       # Total number of references to valid blocks.
system.cpu.itb_walker_cache.tags.sampled_refs            0                       # Sample count of references to valid blocks.
system.cpu.itb_walker_cache.tags.avg_refs          nan                       # Average number of references to valid blocks.
system.cpu.itb_walker_cache.tags.warmup_cycle            0                       # Cycle when the warmup percentage was hit.
system.cpu.itb_walker_cache.tags.tag_accesses            0                       # Number of tag accesses
system.cpu.itb_walker_cache.tags.data_accesses            0                       # Number of data accesses
system.cpu.itb_walker_cache.blocked_cycles::no_mshrs            0                       # number of cycles access was blocked
system.cpu.itb_walker_cache.blocked_cycles::no_targets            0                       # number of cycles access was blocked
system.cpu.itb_walker_cache.blocked::no_mshrs            0                       # number of cycles access was blocked
system.cpu.itb_walker_cache.blocked::no_targets            0                       # number of cycles access was blocked
system.cpu.itb_walker_cache.avg_blocked_cycles::no_mshrs          nan                       # average number of cycles each access was blocked
system.cpu.itb_walker_cache.avg_blocked_cycles::no_targets          nan                       # average number of cycles each access was blocked
system.cpu.itb_walker_cache.fast_writes             0                       # number of fast writes performed
system.cpu.itb_walker_cache.cache_copies            0                       # number of cache copies performed
system.cpu.itb_walker_cache.no_allocate_misses            0                       # Number of misses that were no-allocate
system.l2.tags.replacements                    767942                       # number of replacements
system.l2.tags.tagsinuse                 15675.016047                       # Cycle average of tags in use
system.l2.tags.total_refs                    12026586                       # Total number of references to valid blocks.
system.l2.tags.sampled_refs                    783857                       # Sample count of references to valid blocks.
system.l2.tags.avg_refs                     15.342832                       # Average number of references to valid blocks.
system.l2.tags.warmup_cycle              133440480500                       # Cycle when the warmup percentage was hit.
system.l2.tags.occ_blocks::writebacks     7315.346404                       # Average occupied blocks per requestor
system.l2.tags.occ_blocks::cpu.inst         30.506854                       # Average occupied blocks per requestor
system.l2.tags.occ_blocks::cpu.data       8329.162789                       # Average occupied blocks per requestor
system.l2.tags.occ_percent::writebacks       0.446493                       # Average percentage of cache occupancy
system.l2.tags.occ_percent::cpu.inst         0.001862                       # Average percentage of cache occupancy
system.l2.tags.occ_percent::cpu.data         0.508372                       # Average percentage of cache occupancy
system.l2.tags.occ_percent::total            0.956727                       # Average percentage of cache occupancy
system.l2.tags.occ_task_id_blocks::1024         15915                       # Occupied blocks per task id
system.l2.tags.age_task_id_blocks_1024::1            9                       # Occupied blocks per task id
system.l2.tags.age_task_id_blocks_1024::2           11                       # Occupied blocks per task id
system.l2.tags.age_task_id_blocks_1024::3           79                       # Occupied blocks per task id
system.l2.tags.age_task_id_blocks_1024::4        15816                       # Occupied blocks per task id
system.l2.tags.occ_task_id_percent::1024     0.971375                       # Percentage of cache occupancy per task id
system.l2.tags.tag_accesses                  14842939                       # Number of tag accesses
system.l2.tags.data_accesses                 14842939                       # Number of data accesses
system.l2.WritebackDirty_hits::writebacks       947815                       # number of WritebackDirty hits
system.l2.WritebackDirty_hits::total           947815                       # number of WritebackDirty hits
system.l2.WritebackClean_hits::writebacks      4691385                       # number of WritebackClean hits
system.l2.WritebackClean_hits::total          4691385                       # number of WritebackClean hits
system.l2.ReadExReq_hits::cpu.data             280308                       # number of ReadExReq hits
system.l2.ReadExReq_hits::total                280308                       # number of ReadExReq hits
system.l2.ReadCleanReq_hits::cpu.inst         4687794                       # number of ReadCleanReq hits
system.l2.ReadCleanReq_hits::total            4687794                       # number of ReadCleanReq hits
system.l2.ReadSharedReq_hits::cpu.data        1010810                       # number of ReadSharedReq hits
system.l2.ReadSharedReq_hits::total           1010810                       # number of ReadSharedReq hits
system.l2.demand_hits::cpu.inst               4687794                       # number of demand (read+write) hits
system.l2.demand_hits::cpu.data               1291118                       # number of demand (read+write) hits
system.l2.demand_hits::total                  5978912                       # number of demand (read+write) hits
system.l2.overall_hits::cpu.inst              4687794                       # number of overall hits
system.l2.overall_hits::cpu.data              1291118                       # number of overall hits
system.l2.overall_hits::total                 5978912                       # number of overall hits
system.l2.ReadExReq_misses::cpu.data           308677                       # number of ReadExReq misses
system.l2.ReadExReq_misses::total              308677                       # number of ReadExReq misses
system.l2.ReadCleanReq_misses::cpu.inst          3720                       # number of ReadCleanReq misses
system.l2.ReadCleanReq_misses::total             3720                       # number of ReadCleanReq misses
system.l2.ReadSharedReq_misses::cpu.data       444828                       # number of ReadSharedReq misses
system.l2.ReadSharedReq_misses::total          444828                       # number of ReadSharedReq misses
system.l2.demand_misses::cpu.inst                3720                       # number of demand (read+write) misses
system.l2.demand_misses::cpu.data              753505                       # number of demand (read+write) misses
system.l2.demand_misses::total                 757225                       # number of demand (read+write) misses
system.l2.overall_misses::cpu.inst               3720                       # number of overall misses
system.l2.overall_misses::cpu.data             753505                       # number of overall misses
system.l2.overall_misses::total                757225                       # number of overall misses
system.l2.ReadExReq_miss_latency::cpu.data  26325856000                       # number of ReadExReq miss cycles
system.l2.ReadExReq_miss_latency::total   26325856000                       # number of ReadExReq miss cycles
system.l2.ReadCleanReq_miss_latency::cpu.inst    309201000                       # number of ReadCleanReq miss cycles
system.l2.ReadCleanReq_miss_latency::total    309201000                       # number of ReadCleanReq miss cycles
system.l2.ReadSharedReq_miss_latency::cpu.data  36473753000                       # number of ReadSharedReq miss cycles
system.l2.ReadSharedReq_miss_latency::total  36473753000                       # number of ReadSharedReq miss cycles
system.l2.demand_miss_latency::cpu.inst     309201000                       # number of demand (read+write) miss cycles
system.l2.demand_miss_latency::cpu.data   62799609000                       # number of demand (read+write) miss cycles
system.l2.demand_miss_latency::total      63108810000                       # number of demand (read+write) miss cycles
system.l2.overall_miss_latency::cpu.inst    309201000                       # number of overall miss cycles
system.l2.overall_miss_latency::cpu.data  62799609000                       # number of overall miss cycles
system.l2.overall_miss_latency::total     63108810000                       # number of overall miss cycles
system.l2.WritebackDirty_accesses::writebacks       947815                       # number of WritebackDirty accesses(hits+misses)
system.l2.WritebackDirty_accesses::total       947815                       # number of WritebackDirty accesses(hits+misses)
system.l2.WritebackClean_accesses::writebacks      4691385                       # number of WritebackClean accesses(hits+misses)
system.l2.WritebackClean_accesses::total      4691385                       # number of WritebackClean accesses(hits+misses)
system.l2.ReadExReq_accesses::cpu.data         588985                       # number of ReadExReq accesses(hits+misses)
system.l2.ReadExReq_accesses::total            588985                       # number of ReadExReq accesses(hits+misses)
system.l2.ReadCleanReq_accesses::cpu.inst      4691514                       # number of ReadCleanReq accesses(hits+misses)
system.l2.ReadCleanReq_accesses::total        4691514                       # number of ReadCleanReq accesses(hits+misses)
system.l2.ReadSharedReq_accesses::cpu.data      1455638                       # number of ReadSharedReq accesses(hits+misses)
system.l2.ReadSharedReq_accesses::total       1455638                       # number of ReadSharedReq accesses(hits+misses)
system.l2.demand_accesses::cpu.inst           4691514                       # number of demand (read+write) accesses
system.l2.demand_accesses::cpu.data           2044623                       # number of demand (read+write) accesses
system.l2.demand_accesses::total              6736137                       # number of demand (read+write) accesses
system.l2.overall_accesses::cpu.inst          4691514                       # number of overall (read+write) accesses
system.l2.overall_accesses::cpu.data          2044623                       # number of overall (read+write) accesses
system.l2.overall_accesses::total             6736137                       # number of overall (read+write) accesses
system.l2.ReadExReq_miss_rate::cpu.data      0.524083                       # miss rate for ReadExReq accesses
system.l2.ReadExReq_miss_rate::total         0.524083                       # miss rate for ReadExReq accesses
system.l2.ReadCleanReq_miss_rate::cpu.inst     0.000793                       # miss rate for ReadCleanReq accesses
system.l2.ReadCleanReq_miss_rate::total      0.000793                       # miss rate for ReadCleanReq accesses
system.l2.ReadSharedReq_miss_rate::cpu.data     0.305590                       # miss rate for ReadSharedReq accesses
system.l2.ReadSharedReq_miss_rate::total     0.305590                       # miss rate for ReadSharedReq accesses
system.l2.demand_miss_rate::cpu.inst         0.000793                       # miss rate for demand accesses
system.l2.demand_miss_rate::cpu.data         0.368530                       # miss rate for demand accesses
system.l2.demand_miss_rate::total            0.112412                       # miss rate for demand accesses
system.l2.overall_miss_rate::cpu.inst        0.000793                       # miss rate for overall accesses
system.l2.overall_miss_rate::cpu.data        0.368530                       # miss rate for overall accesses
system.l2.overall_miss_rate::total           0.112412                       # miss rate for overall accesses
system.l2.ReadExReq_avg_miss_latency::cpu.data 85286.095174                       # average ReadExReq miss latency
system.l2.ReadExReq_avg_miss_latency::total 85286.095174                       # average ReadExReq miss latency
system.l2.ReadCleanReq_avg_miss_latency::cpu.inst 83118.548387                       # average ReadCleanReq miss latency
system.l2.ReadCleanReq_avg_miss_latency::total 83118.548387                       # average ReadCleanReq miss latency
system.l2.ReadSharedReq_avg_miss_latency::cpu.data 81995.182408                       # average ReadSharedReq miss latency
system.l2.ReadSharedReq_avg_miss_latency::total 81995.182408                       # average ReadSharedReq miss latency
system.l2.demand_avg_miss_latency::cpu.inst 83118.548387                       # average overall miss latency
system.l2.demand_avg_miss_latency::cpu.data 83343.320880                       # average overall miss latency
system.l2.demand_avg_miss_latency::total 83342.216646                       # average overall miss latency
system.l2.overall_avg_miss_latency::cpu.inst 83118.548387                       # average overall miss latency
system.l2.overall_avg_miss_latency::cpu.data 83343.320880                       # average overall miss latency
system.l2.overall_avg_miss_latency::total 83342.216646                       # average overall miss latency
system.l2.blocked_cycles::no_mshrs                  0                       # number of cycles access was blocked
system.l2.blocked_cycles::no_targets                0                       # number of cycles access was blocked
system.l2.blocked::no_mshrs                         0                       # number of cycles access was blocked
system.l2.blocked::no_targets                       0                       # number of cycles access was blocked
system.l2.avg_blocked_cycles::no_mshrs            nan                       # average number of cycles each access was blocked
system.l2.avg_blocked_cycles::no_targets          nan                       # average number of cycles each access was blocked
system.l2.fast_writes                               0                       # number of fast writes performed
system.l2.cache_copies                              0                       # number of cache copies performed
system.l2.writebacks::writebacks               389385                       # number of writebacks
system.l2.writebacks::total                    389385                       # number of writebacks
system.l2.CleanEvict_mshr_misses::writebacks        70435                       # number of CleanEvict MSHR misses
system.l2.CleanEvict_mshr_misses::total         70435                       # number of CleanEvict MSHR misses
system.l2.ReadExReq_mshr_misses::cpu.data       308677                       # number of ReadExReq MSHR misses
system.l2.ReadExReq_mshr_misses::total         308677                       # number of ReadExReq MSHR misses
system.l2.ReadCleanReq_mshr_misses::cpu.inst         3720                       # number of ReadCleanReq MSHR misses
system.l2.ReadCleanReq_mshr_misses::total         3720                       # number of ReadCleanReq MSHR misses
system.l2.ReadSharedReq_mshr_misses::cpu.data       444828                       # number of ReadSharedReq MSHR misses
system.l2.ReadSharedReq_mshr_misses::total       444828                       # number of ReadSharedReq MSHR misses
system.l2.demand_mshr_misses::cpu.inst           3720                       # number of demand (read+write) MSHR misses
system.l2.demand_mshr_misses::cpu.data         753505                       # number of demand (read+write) MSHR misses
system.l2.demand_mshr_misses::total            757225                       # number of demand (read+write) MSHR misses
system.l2.overall_mshr_misses::cpu.inst          3720                       # number of overall MSHR misses
system.l2.overall_mshr_misses::cpu.data        753505                       # number of overall MSHR misses
system.l2.overall_mshr_misses::total           757225                       # number of overall MSHR misses
system.l2.ReadExReq_mshr_miss_latency::cpu.data  23239086000                       # number of ReadExReq MSHR miss cycles
system.l2.ReadExReq_mshr_miss_latency::total  23239086000                       # number of ReadExReq MSHR miss cycles
system.l2.ReadCleanReq_mshr_miss_latency::cpu.inst    272001000                       # number of ReadCleanReq MSHR miss cycles
system.l2.ReadCleanReq_mshr_miss_latency::total    272001000                       # number of ReadCleanReq MSHR miss cycles
system.l2.ReadSharedReq_mshr_miss_latency::cpu.data  32025473000                       # number of ReadSharedReq MSHR miss cycles
system.l2.ReadSharedReq_mshr_miss_latency::total  32025473000                       # number of ReadSharedReq MSHR miss cycles
system.l2.demand_mshr_miss_latency::cpu.inst    272001000                       # number of demand (read+write) MSHR miss cycles
system.l2.demand_mshr_miss_latency::cpu.data  55264559000                       # number of demand (read+write) MSHR miss cycles
system.l2.demand_mshr_miss_latency::total  55536560000                       # number of demand (read+write) MSHR miss cycles
system.l2.overall_mshr_miss_latency::cpu.inst    272001000                       # number of overall MSHR miss cycles
system.l2.overall_mshr_miss_latency::cpu.data  55264559000                       # number of overall MSHR miss cycles
system.l2.overall_mshr_miss_latency::total  55536560000                       # number of overall MSHR miss cycles
system.l2.CleanEvict_mshr_miss_rate::writebacks          inf                       # mshr miss rate for CleanEvict accesses
system.l2.CleanEvict_mshr_miss_rate::total          inf                       # mshr miss rate for CleanEvict accesses
system.l2.ReadExReq_mshr_miss_rate::cpu.data     0.524083                       # mshr miss rate for ReadExReq accesses
system.l2.ReadExReq_mshr_miss_rate::total     0.524083                       # mshr miss rate for ReadExReq accesses
system.l2.ReadCleanReq_mshr_miss_rate::cpu.inst     0.000793                       # mshr miss rate for ReadCleanReq accesses
system.l2.ReadCleanReq_mshr_miss_rate::total     0.000793                       # mshr miss rate for ReadCleanReq accesses
system.l2.ReadSharedReq_mshr_miss_rate::cpu.data     0.305590                       # mshr miss rate for ReadSharedReq accesses
system.l2.ReadSharedReq_mshr_miss_rate::total     0.305590                       # mshr miss rate for ReadSharedReq accesses
system.l2.demand_mshr_miss_rate::cpu.inst     0.000793                       # mshr miss rate for demand accesses
system.l2.demand_mshr_miss_rate::cpu.data     0.368530                       # mshr miss rate for demand accesses
system.l2.demand_mshr_miss_rate::total       0.112412                       # mshr miss rate for demand accesses
system.l2.overall_mshr_miss_rate::cpu.inst     0.000793                       # mshr miss rate for overall accesses
system.l2.overall_mshr_miss_rate::cpu.data     0.368530                       # mshr miss rate for overall accesses
system.l2.overall_mshr_miss_rate::total      0.112412                       # mshr miss rate for overall accesses
system.l2.ReadExReq_avg_mshr_miss_latency::cpu.data 75286.095174                       # average ReadExReq mshr miss latency
system.l2.ReadExReq_avg_mshr_miss_latency::total 75286.095174                       # average ReadExReq mshr miss latency
system.l2.ReadCleanReq_avg_mshr_miss_latency::cpu.inst 73118.548387                       # average ReadCleanReq mshr miss latency
system.l2.ReadCleanReq_avg_mshr_miss_latency::total 73118.548387                       # average ReadCleanReq mshr miss latency
system.l2.ReadSharedReq_avg_mshr_miss_latency::cpu.data 71995.182408                       # average ReadSharedReq mshr miss latency
system.l2.ReadSharedReq_avg_mshr_miss_latency::total 71995.182408                       # average ReadSharedReq mshr miss latency
system.l2.demand_avg_mshr_miss_latency::cpu.inst 73118.548387                       # average overall mshr miss latency
system.l2.demand_avg_mshr_miss_latency::cpu.data 73343.320880                       # average overall mshr miss latency
system.l2.demand_avg_mshr_miss_latency::total 73342.216646                       # average overall mshr miss latency
system.l2.overall_avg_mshr_miss_latency::cpu.inst 73118.548387                       # average overall mshr miss latency
system.l2.overall_avg_mshr_miss_latency::cpu.data 73343.320880                       # average overall mshr miss latency
system.l2.overall_avg_mshr_miss_latency::total 73342.216646                       # average overall mshr miss latency
system.l2.no_allocate_misses                        0                       # Number of misses that were no-allocate
system.membus.trans_dist::ReadResp             448548                       # Transaction distribution
system.membus.trans_dist::WritebackDirty       389385                       # Transaction distribution
system.membus.trans_dist::CleanEvict           351453                       # Transaction distribution
system.membus.trans_dist::ReadExReq            308677                       # Transaction distribution
system.membus.trans_dist::ReadExResp           308677                       # Transaction distribution
system.membus.trans_dist::ReadSharedReq        448548                       # Transaction distribution
system.membus.pkt_count_system.l2.mem_side::system.mem_ctrls.port      2255288                       # Packet count per connected master and slave (bytes)
system.membus.pkt_count_system.l2.mem_side::total      2255288                       # Packet count per connected master and slave (bytes)
system.membus.pkt_count::total                2255288                       # Packet count per connected master and slave (bytes)
system.membus.pkt_size_system.l2.mem_side::system.mem_ctrls.port     73383040                       # Cumulative packet size per connected master and slave (bytes)
system.membus.pkt_size_system.l2.mem_side::total     73383040                       # Cumulative packet size per connected master and slave (bytes)
system.membus.pkt_size::total                73383040                       # Cumulative packet size per connected master and slave (bytes)
system.membus.snoops                                0                       # Total snoops (count)
system.membus.snoop_fanout::samples           1498063                       # Request fanout histogram
system.membus.snoop_fanout::mean                    0                       # Request fanout histogram
system.membus.snoop_fanout::stdev                   0                       # Request fanout histogram
system.membus.snoop_fanout::underflows              0      0.00%      0.00% # Request fanout histogram
system.membus.snoop_fanout::0                 1498063    100.00%    100.00% # Request fanout histogram
system.membus.snoop_fanout::1                       0      0.00%    100.00% # Request fanout histogram
system.membus.snoop_fanout::overflows               0      0.00%    100.00% # Request fanout histogram
system.membus.snoop_fanout::min_value               0                       # Request fanout histogram
system.membus.snoop_fanout::max_value               0                       # Request fanout histogram
system.membus.snoop_fanout::total             1498063                       # Request fanout histogram
system.membus.reqLayer2.occupancy          3064050000                       # Layer occupancy (ticks)
system.membus.reqLayer2.utilization               0.3                       # Layer utilization (%)
system.membus.respLayer1.occupancy         4097442750                       # Layer occupancy (ticks)
system.membus.respLayer1.utilization              0.4                       # Layer utilization (%)
system.tol2bus.snoop_filter.tot_requests     13470098                       # Total number of requests made to the snoop filter.
system.tol2bus.snoop_filter.hit_single_requests      6733961                       # Number of requests hitting in the snoop filter with a single holder of the requested data.
system.tol2bus.snoop_filter.hit_multi_requests            1                       # Number of requests hitting in the snoop filter with multiple (>1) holders of the requested data.
system.tol2bus.snoop_filter.tot_snoops          97539                       # Total number of snoops made to the snoop filter.
system.tol2bus.snoop_filter.hit_single_snoops        97539                       # Number of snoops hitting in the snoop filter with a single holder of the requested data.
system.tol2bus.snoop_filter.hit_multi_snoops            0                       # Number of snoops hitting in the snoop filter with multiple (>1) holders of the requested data.
system.tol2bus.trans_dist::ReadResp           6147152                       # Transaction distribution
system.tol2bus.trans_dist::WritebackDirty      1337200                       # Transaction distribution
system.tol2bus.trans_dist::WritebackClean      4691385                       # Transaction distribution
system.tol2bus.trans_dist::CleanEvict         1473317                       # Transaction distribution
system.tol2bus.trans_dist::ReadExReq           588985                       # Transaction distribution
system.tol2bus.trans_dist::ReadExResp          588985                       # Transaction distribution
system.tol2bus.trans_dist::ReadCleanReq       4691514                       # Transaction distribution
system.tol2bus.trans_dist::ReadSharedReq      1455638                       # Transaction distribution
system.tol2bus.pkt_count_system.cpu.icache.mem_side::system.l2.cpu_side     14074413                       # Packet count per connected master and slave (bytes)
system.tol2bus.pkt_count_system.cpu.dcache.mem_side::system.l2.cpu_side      6131821                       # Packet count per connected master and slave (bytes)
system.tol2bus.pkt_count::total              20206234                       # Packet count per connected master and slave (bytes)
system.tol2bus.pkt_size_system.cpu.icache.mem_side::system.l2.cpu_side    600505536                       # Cumulative packet size per connected master and slave (bytes)
system.tol2bus.pkt_size_system.cpu.dcache.mem_side::system.l2.cpu_side    191516032                       # Cumulative packet size per connected master and slave (bytes)
system.tol2bus.pkt_size::total              792021568                       # Cumulative packet size per connected master and slave (bytes)
system.tol2bus.snoops                          767942                       # Total snoops (count)
system.tol2bus.snoop_fanout::samples          7504079                       # Request fanout histogram
system.tol2bus.snoop_fanout::mean            0.012998                       # Request fanout histogram
system.tol2bus.snoop_fanout::stdev           0.113267                       # Request fanout histogram
system.tol2bus.snoop_fanout::underflows             0      0.00%      0.00% # Request fanout histogram
system.tol2bus.snoop_fanout::0                7406539     98.70%     98.70% # Request fanout histogram
system.tol2bus.snoop_fanout::1                  97540      1.30%    100.00% # Request fanout histogram
system.tol2bus.snoop_fanout::2                      0      0.00%    100.00% # Request fanout histogram
system.tol2bus.snoop_fanout::3                      0      0.00%    100.00% # Request fanout histogram
system.tol2bus.snoop_fanout::4                      0      0.00%    100.00% # Request fanout histogram
system.tol2bus.snoop_fanout::overflows              0      0.00%    100.00% # Request fanout histogram
system.tol2bus.snoop_fanout::min_value              0                       # Request fanout histogram
system.tol2bus.snoop_fanout::max_value              1                       # Request fanout histogram
system.tol2bus.snoop_fanout::total            7504079                       # Request fanout histogram
system.tol2bus.reqLayer0.occupancy        12374250000                       # Layer occupancy (ticks)
system.tol2bus.reqLayer0.utilization              1.1                       # Layer utilization (%)
system.tol2bus.respLayer0.occupancy        7037271000                       # Layer occupancy (ticks)
system.tol2bus.respLayer0.utilization             0.6                       # Layer utilization (%)
system.tol2bus.respLayer1.occupancy        3066934500                       # Layer occupancy (ticks)
system.tol2bus.respLayer1.utilization             0.3                       # Layer utilization (%)

---------- End Simulation Statistics   ----------
