
---------- Begin Simulation Statistics ----------
sim_seconds                                  1.754701                       # Number of seconds simulated
sim_ticks                                1754701323500                       # Number of ticks simulated
final_tick                               1754701323500                       # Number of ticks from beginning of simulation (restored from checkpoints and never reset)
sim_freq                                 1000000000000                       # Frequency of simulated ticks
host_inst_rate                                 304601                       # Simulator instruction rate (inst/s)
host_op_rate                                   533851                       # Simulator op (including micro ops) rate (op/s)
host_tick_rate                             1068965911                       # Simulator tick rate (ticks/s)
host_mem_usage                                 824092                       # Number of bytes of host memory used
host_seconds                                  1641.49                       # Real time elapsed on the host
sim_insts                                   500000000                       # Number of instructions simulated
sim_ops                                     876313787                       # Number of ops (including micro ops) simulated
system.voltage_domain.voltage                       1                       # Voltage in Volts
system.clk_domain.clock                          1000                       # Clock period in ticks
system.mem_ctrls.bytes_read::cpu.inst           43200                       # Number of bytes read from this memory
system.mem_ctrls.bytes_read::cpu.data       501933376                       # Number of bytes read from this memory
system.mem_ctrls.bytes_read::total          501976576                       # Number of bytes read from this memory
system.mem_ctrls.bytes_inst_read::cpu.inst        43200                       # Number of instructions bytes read from this memory
system.mem_ctrls.bytes_inst_read::total         43200                       # Number of instructions bytes read from this memory
system.mem_ctrls.bytes_written::writebacks     79378560                       # Number of bytes written to this memory
system.mem_ctrls.bytes_written::total        79378560                       # Number of bytes written to this memory
system.mem_ctrls.num_reads::cpu.inst              675                       # Number of read requests responded to by this memory
system.mem_ctrls.num_reads::cpu.data          7842709                       # Number of read requests responded to by this memory
system.mem_ctrls.num_reads::total             7843384                       # Number of read requests responded to by this memory
system.mem_ctrls.num_writes::writebacks       1240290                       # Number of write requests responded to by this memory
system.mem_ctrls.num_writes::total            1240290                       # Number of write requests responded to by this memory
system.mem_ctrls.bw_read::cpu.inst              24620                       # Total read bandwidth from this memory (bytes/s)
system.mem_ctrls.bw_read::cpu.data          286050605                       # Total read bandwidth from this memory (bytes/s)
system.mem_ctrls.bw_read::total             286075225                       # Total read bandwidth from this memory (bytes/s)
system.mem_ctrls.bw_inst_read::cpu.inst         24620                       # Instruction read bandwidth from this memory (bytes/s)
system.mem_ctrls.bw_inst_read::total            24620                       # Instruction read bandwidth from this memory (bytes/s)
system.mem_ctrls.bw_write::writebacks        45237648                       # Write bandwidth from this memory (bytes/s)
system.mem_ctrls.bw_write::total             45237648                       # Write bandwidth from this memory (bytes/s)
system.mem_ctrls.bw_total::writebacks        45237648                       # Total bandwidth to/from this memory (bytes/s)
system.mem_ctrls.bw_total::cpu.inst             24620                       # Total bandwidth to/from this memory (bytes/s)
system.mem_ctrls.bw_total::cpu.data         286050605                       # Total bandwidth to/from this memory (bytes/s)
system.mem_ctrls.bw_total::total            331312873                       # Total bandwidth to/from this memory (bytes/s)
system.mem_ctrls.readReqs                     7843384                       # Number of read requests accepted
system.mem_ctrls.writeReqs                    1240290                       # Number of write requests accepted
system.mem_ctrls.readBursts                   7843384                       # Number of DRAM read bursts, including those serviced by the write queue
system.mem_ctrls.writeBursts                  1240290                       # Number of DRAM write bursts, including those merged in the write queue
system.mem_ctrls.bytesReadDRAM              501185344                       # Total number of bytes read from DRAM
system.mem_ctrls.bytesReadWrQ                  791232                       # Total number of bytes read from write queue
system.mem_ctrls.bytesWritten                79376640                       # Total number of bytes written to DRAM
system.mem_ctrls.bytesReadSys               501976576                       # Total read bytes from the system interface side
system.mem_ctrls.bytesWrittenSys             79378560                       # Total written bytes from the system interface side
system.mem_ctrls.servicedByWrQ                  12363                       # Number of DRAM read bursts serviced by the write queue
system.mem_ctrls.mergedWrBursts                     7                       # Number of DRAM write bursts merged with an existing one
system.mem_ctrls.neitherReadNorWriteReqs      6598286                       # Number of requests that are neither read nor write
system.mem_ctrls.perBankRdBursts::0            501922                       # Per bank write bursts
system.mem_ctrls.perBankRdBursts::1            491884                       # Per bank write bursts
system.mem_ctrls.perBankRdBursts::2            485547                       # Per bank write bursts
system.mem_ctrls.perBankRdBursts::3            486702                       # Per bank write bursts
system.mem_ctrls.perBankRdBursts::4            476213                       # Per bank write bursts
system.mem_ctrls.perBankRdBursts::5            478401                       # Per bank write bursts
system.mem_ctrls.perBankRdBursts::6            478953                       # Per bank write bursts
system.mem_ctrls.perBankRdBursts::7            477058                       # Per bank write bursts
system.mem_ctrls.perBankRdBursts::8            484497                       # Per bank write bursts
system.mem_ctrls.perBankRdBursts::9            481300                       # Per bank write bursts
system.mem_ctrls.perBankRdBursts::10           489275                       # Per bank write bursts
system.mem_ctrls.perBankRdBursts::11           496671                       # Per bank write bursts
system.mem_ctrls.perBankRdBursts::12           496225                       # Per bank write bursts
system.mem_ctrls.perBankRdBursts::13           503107                       # Per bank write bursts
system.mem_ctrls.perBankRdBursts::14           502568                       # Per bank write bursts
system.mem_ctrls.perBankRdBursts::15           500698                       # Per bank write bursts
system.mem_ctrls.perBankWrBursts::0             79637                       # Per bank write bursts
system.mem_ctrls.perBankWrBursts::1             79530                       # Per bank write bursts
system.mem_ctrls.perBankWrBursts::2             79018                       # Per bank write bursts
system.mem_ctrls.perBankWrBursts::3             80109                       # Per bank write bursts
system.mem_ctrls.perBankWrBursts::4             76803                       # Per bank write bursts
system.mem_ctrls.perBankWrBursts::5             73581                       # Per bank write bursts
system.mem_ctrls.perBankWrBursts::6             77266                       # Per bank write bursts
system.mem_ctrls.perBankWrBursts::7             74086                       # Per bank write bursts
system.mem_ctrls.perBankWrBursts::8             75048                       # Per bank write bursts
system.mem_ctrls.perBankWrBursts::9             73621                       # Per bank write bursts
system.mem_ctrls.perBankWrBursts::10            74422                       # Per bank write bursts
system.mem_ctrls.perBankWrBursts::11            78192                       # Per bank write bursts
system.mem_ctrls.perBankWrBursts::12            79741                       # Per bank write bursts
system.mem_ctrls.perBankWrBursts::13            80101                       # Per bank write bursts
system.mem_ctrls.perBankWrBursts::14            79312                       # Per bank write bursts
system.mem_ctrls.perBankWrBursts::15            79793                       # Per bank write bursts
system.mem_ctrls.numRdRetry                         0                       # Number of times read queue was full causing retry
system.mem_ctrls.numWrRetry                         0                       # Number of times write queue was full causing retry
system.mem_ctrls.totGap                  1754684140500                       # Total gap between requests
system.mem_ctrls.readPktSize::0                     0                       # Read request sizes (log2)
system.mem_ctrls.readPktSize::1                     0                       # Read request sizes (log2)
system.mem_ctrls.readPktSize::2                     0                       # Read request sizes (log2)
system.mem_ctrls.readPktSize::3                     0                       # Read request sizes (log2)
system.mem_ctrls.readPktSize::4                     0                       # Read request sizes (log2)
system.mem_ctrls.readPktSize::5                     0                       # Read request sizes (log2)
system.mem_ctrls.readPktSize::6               7843384                       # Read request sizes (log2)
system.mem_ctrls.writePktSize::0                    0                       # Write request sizes (log2)
system.mem_ctrls.writePktSize::1                    0                       # Write request sizes (log2)
system.mem_ctrls.writePktSize::2                    0                       # Write request sizes (log2)
system.mem_ctrls.writePktSize::3                    0                       # Write request sizes (log2)
system.mem_ctrls.writePktSize::4                    0                       # Write request sizes (log2)
system.mem_ctrls.writePktSize::5                    0                       # Write request sizes (log2)
system.mem_ctrls.writePktSize::6              1240290                       # Write request sizes (log2)
system.mem_ctrls.rdQLenPdf::0                 7831021                       # What read queue length does an incoming req see
system.mem_ctrls.rdQLenPdf::1                       0                       # What read queue length does an incoming req see
system.mem_ctrls.rdQLenPdf::2                       0                       # What read queue length does an incoming req see
system.mem_ctrls.rdQLenPdf::3                       0                       # What read queue length does an incoming req see
system.mem_ctrls.rdQLenPdf::4                       0                       # What read queue length does an incoming req see
system.mem_ctrls.rdQLenPdf::5                       0                       # What read queue length does an incoming req see
system.mem_ctrls.rdQLenPdf::6                       0                       # What read queue length does an incoming req see
system.mem_ctrls.rdQLenPdf::7                       0                       # What read queue length does an incoming req see
system.mem_ctrls.rdQLenPdf::8                       0                       # What read queue length does an incoming req see
system.mem_ctrls.rdQLenPdf::9                       0                       # What read queue length does an incoming req see
system.mem_ctrls.rdQLenPdf::10                      0                       # What read queue length does an incoming req see
system.mem_ctrls.rdQLenPdf::11                      0                       # What read queue length does an incoming req see
system.mem_ctrls.rdQLenPdf::12                      0                       # What read queue length does an incoming req see
system.mem_ctrls.rdQLenPdf::13                      0                       # What read queue length does an incoming req see
system.mem_ctrls.rdQLenPdf::14                      0                       # What read queue length does an incoming req see
system.mem_ctrls.rdQLenPdf::15                      0                       # What read queue length does an incoming req see
system.mem_ctrls.rdQLenPdf::16                      0                       # What read queue length does an incoming req see
system.mem_ctrls.rdQLenPdf::17                      0                       # What read queue length does an incoming req see
system.mem_ctrls.rdQLenPdf::18                      0                       # What read queue length does an incoming req see
system.mem_ctrls.rdQLenPdf::19                      0                       # What read queue length does an incoming req see
system.mem_ctrls.rdQLenPdf::20                      0                       # What read queue length does an incoming req see
system.mem_ctrls.rdQLenPdf::21                      0                       # What read queue length does an incoming req see
system.mem_ctrls.rdQLenPdf::22                      0                       # What read queue length does an incoming req see
system.mem_ctrls.rdQLenPdf::23                      0                       # What read queue length does an incoming req see
system.mem_ctrls.rdQLenPdf::24                      0                       # What read queue length does an incoming req see
system.mem_ctrls.rdQLenPdf::25                      0                       # What read queue length does an incoming req see
system.mem_ctrls.rdQLenPdf::26                      0                       # What read queue length does an incoming req see
system.mem_ctrls.rdQLenPdf::27                      0                       # What read queue length does an incoming req see
system.mem_ctrls.rdQLenPdf::28                      0                       # What read queue length does an incoming req see
system.mem_ctrls.rdQLenPdf::29                      0                       # What read queue length does an incoming req see
system.mem_ctrls.rdQLenPdf::30                      0                       # What read queue length does an incoming req see
system.mem_ctrls.rdQLenPdf::31                      0                       # What read queue length does an incoming req see
system.mem_ctrls.wrQLenPdf::0                       1                       # What write queue length does an incoming req see
system.mem_ctrls.wrQLenPdf::1                       1                       # What write queue length does an incoming req see
system.mem_ctrls.wrQLenPdf::2                       1                       # What write queue length does an incoming req see
system.mem_ctrls.wrQLenPdf::3                       1                       # What write queue length does an incoming req see
system.mem_ctrls.wrQLenPdf::4                       1                       # What write queue length does an incoming req see
system.mem_ctrls.wrQLenPdf::5                       1                       # What write queue length does an incoming req see
system.mem_ctrls.wrQLenPdf::6                       1                       # What write queue length does an incoming req see
system.mem_ctrls.wrQLenPdf::7                       1                       # What write queue length does an incoming req see
system.mem_ctrls.wrQLenPdf::8                       1                       # What write queue length does an incoming req see
system.mem_ctrls.wrQLenPdf::9                       1                       # What write queue length does an incoming req see
system.mem_ctrls.wrQLenPdf::10                      1                       # What write queue length does an incoming req see
system.mem_ctrls.wrQLenPdf::11                      1                       # What write queue length does an incoming req see
system.mem_ctrls.wrQLenPdf::12                      1                       # What write queue length does an incoming req see
system.mem_ctrls.wrQLenPdf::13                      1                       # What write queue length does an incoming req see
system.mem_ctrls.wrQLenPdf::14                      1                       # What write queue length does an incoming req see
system.mem_ctrls.wrQLenPdf::15                  26826                       # What write queue length does an incoming req see
system.mem_ctrls.wrQLenPdf::16                  27596                       # What write queue length does an incoming req see
system.mem_ctrls.wrQLenPdf::17                  73694                       # What write queue length does an incoming req see
system.mem_ctrls.wrQLenPdf::18                  74133                       # What write queue length does an incoming req see
system.mem_ctrls.wrQLenPdf::19                  74065                       # What write queue length does an incoming req see
system.mem_ctrls.wrQLenPdf::20                  74052                       # What write queue length does an incoming req see
system.mem_ctrls.wrQLenPdf::21                  74048                       # What write queue length does an incoming req see
system.mem_ctrls.wrQLenPdf::22                  74073                       # What write queue length does an incoming req see
system.mem_ctrls.wrQLenPdf::23                  74094                       # What write queue length does an incoming req see
system.mem_ctrls.wrQLenPdf::24                  74060                       # What write queue length does an incoming req see
system.mem_ctrls.wrQLenPdf::25                  74193                       # What write queue length does an incoming req see
system.mem_ctrls.wrQLenPdf::26                  74116                       # What write queue length does an incoming req see
system.mem_ctrls.wrQLenPdf::27                  74637                       # What write queue length does an incoming req see
system.mem_ctrls.wrQLenPdf::28                  74451                       # What write queue length does an incoming req see
system.mem_ctrls.wrQLenPdf::29                  74059                       # What write queue length does an incoming req see
system.mem_ctrls.wrQLenPdf::30                  74073                       # What write queue length does an incoming req see
system.mem_ctrls.wrQLenPdf::31                  74037                       # What write queue length does an incoming req see
system.mem_ctrls.wrQLenPdf::32                  74037                       # What write queue length does an incoming req see
system.mem_ctrls.wrQLenPdf::33                     22                       # What write queue length does an incoming req see
system.mem_ctrls.wrQLenPdf::34                      2                       # What write queue length does an incoming req see
system.mem_ctrls.wrQLenPdf::35                      0                       # What write queue length does an incoming req see
system.mem_ctrls.wrQLenPdf::36                      0                       # What write queue length does an incoming req see
system.mem_ctrls.wrQLenPdf::37                      0                       # What write queue length does an incoming req see
system.mem_ctrls.wrQLenPdf::38                      0                       # What write queue length does an incoming req see
system.mem_ctrls.wrQLenPdf::39                      0                       # What write queue length does an incoming req see
system.mem_ctrls.wrQLenPdf::40                      0                       # What write queue length does an incoming req see
system.mem_ctrls.wrQLenPdf::41                      0                       # What write queue length does an incoming req see
system.mem_ctrls.wrQLenPdf::42                      0                       # What write queue length does an incoming req see
system.mem_ctrls.wrQLenPdf::43                      0                       # What write queue length does an incoming req see
system.mem_ctrls.wrQLenPdf::44                      0                       # What write queue length does an incoming req see
system.mem_ctrls.wrQLenPdf::45                      0                       # What write queue length does an incoming req see
system.mem_ctrls.wrQLenPdf::46                      0                       # What write queue length does an incoming req see
system.mem_ctrls.wrQLenPdf::47                      0                       # What write queue length does an incoming req see
system.mem_ctrls.wrQLenPdf::48                      0                       # What write queue length does an incoming req see
system.mem_ctrls.wrQLenPdf::49                      0                       # What write queue length does an incoming req see
system.mem_ctrls.wrQLenPdf::50                      0                       # What write queue length does an incoming req see
system.mem_ctrls.wrQLenPdf::51                      0                       # What write queue length does an incoming req see
system.mem_ctrls.wrQLenPdf::52                      0                       # What write queue length does an incoming req see
system.mem_ctrls.wrQLenPdf::53                      0                       # What write queue length does an incoming req see
system.mem_ctrls.wrQLenPdf::54                      0                       # What write queue length does an incoming req see
system.mem_ctrls.wrQLenPdf::55                      0                       # What write queue length does an incoming req see
system.mem_ctrls.wrQLenPdf::56                      0                       # What write queue length does an incoming req see
system.mem_ctrls.wrQLenPdf::57                      0                       # What write queue length does an incoming req see
system.mem_ctrls.wrQLenPdf::58                      0                       # What write queue length does an incoming req see
system.mem_ctrls.wrQLenPdf::59                      0                       # What write queue length does an incoming req see
system.mem_ctrls.wrQLenPdf::60                      0                       # What write queue length does an incoming req see
system.mem_ctrls.wrQLenPdf::61                      0                       # What write queue length does an incoming req see
system.mem_ctrls.wrQLenPdf::62                      0                       # What write queue length does an incoming req see
system.mem_ctrls.wrQLenPdf::63                      0                       # What write queue length does an incoming req see
system.mem_ctrls.bytesPerActivate::samples      6721022                       # Bytes accessed per row activation
system.mem_ctrls.bytesPerActivate::mean     86.380015                       # Bytes accessed per row activation
system.mem_ctrls.bytesPerActivate::gmean    72.198969                       # Bytes accessed per row activation
system.mem_ctrls.bytesPerActivate::stdev   111.546933                       # Bytes accessed per row activation
system.mem_ctrls.bytesPerActivate::0-127      6013766     89.48%     89.48% # Bytes accessed per row activation
system.mem_ctrls.bytesPerActivate::128-255       514976      7.66%     97.14% # Bytes accessed per row activation
system.mem_ctrls.bytesPerActivate::256-383        55878      0.83%     97.97% # Bytes accessed per row activation
system.mem_ctrls.bytesPerActivate::384-511        22807      0.34%     98.31% # Bytes accessed per row activation
system.mem_ctrls.bytesPerActivate::512-639        14881      0.22%     98.53% # Bytes accessed per row activation
system.mem_ctrls.bytesPerActivate::640-767        15489      0.23%     98.76% # Bytes accessed per row activation
system.mem_ctrls.bytesPerActivate::768-895        14795      0.22%     98.98% # Bytes accessed per row activation
system.mem_ctrls.bytesPerActivate::896-1023         9760      0.15%     99.13% # Bytes accessed per row activation
system.mem_ctrls.bytesPerActivate::1024-1151        58670      0.87%    100.00% # Bytes accessed per row activation
system.mem_ctrls.bytesPerActivate::total      6721022                       # Bytes accessed per row activation
system.mem_ctrls.rdPerTurnAround::samples        74037                       # Reads before turning the bus around for writes
system.mem_ctrls.rdPerTurnAround::mean     105.771493                       # Reads before turning the bus around for writes
system.mem_ctrls.rdPerTurnAround::gmean     47.295649                       # Reads before turning the bus around for writes
system.mem_ctrls.rdPerTurnAround::stdev    205.141261                       # Reads before turning the bus around for writes
system.mem_ctrls.rdPerTurnAround::0-255         65805     88.88%     88.88% # Reads before turning the bus around for writes
system.mem_ctrls.rdPerTurnAround::256-511         3413      4.61%     93.49% # Reads before turning the bus around for writes
system.mem_ctrls.rdPerTurnAround::512-767         2705      3.65%     97.14% # Reads before turning the bus around for writes
system.mem_ctrls.rdPerTurnAround::768-1023         1463      1.98%     99.12% # Reads before turning the bus around for writes
system.mem_ctrls.rdPerTurnAround::1024-1279          466      0.63%     99.75% # Reads before turning the bus around for writes
system.mem_ctrls.rdPerTurnAround::1280-1535          143      0.19%     99.94% # Reads before turning the bus around for writes
system.mem_ctrls.rdPerTurnAround::1536-1791           28      0.04%     99.98% # Reads before turning the bus around for writes
system.mem_ctrls.rdPerTurnAround::1792-2047           10      0.01%     99.99% # Reads before turning the bus around for writes
system.mem_ctrls.rdPerTurnAround::2048-2303            3      0.00%    100.00% # Reads before turning the bus around for writes
system.mem_ctrls.rdPerTurnAround::5376-5631            1      0.00%    100.00% # Reads before turning the bus around for writes
system.mem_ctrls.rdPerTurnAround::total         74037                       # Reads before turning the bus around for writes
system.mem_ctrls.wrPerTurnAround::samples        74037                       # Writes before turning the bus around for reads
system.mem_ctrls.wrPerTurnAround::mean      16.751894                       # Writes before turning the bus around for reads
system.mem_ctrls.wrPerTurnAround::gmean     16.723325                       # Writes before turning the bus around for reads
system.mem_ctrls.wrPerTurnAround::stdev      0.989692                       # Writes before turning the bus around for reads
system.mem_ctrls.wrPerTurnAround::16            46443     62.73%     62.73% # Writes before turning the bus around for reads
system.mem_ctrls.wrPerTurnAround::17              758      1.02%     63.75% # Writes before turning the bus around for reads
system.mem_ctrls.wrPerTurnAround::18            25634     34.62%     98.38% # Writes before turning the bus around for reads
system.mem_ctrls.wrPerTurnAround::19             1171      1.58%     99.96% # Writes before turning the bus around for reads
system.mem_ctrls.wrPerTurnAround::20               26      0.04%     99.99% # Writes before turning the bus around for reads
system.mem_ctrls.wrPerTurnAround::21                5      0.01%    100.00% # Writes before turning the bus around for reads
system.mem_ctrls.wrPerTurnAround::total         74037                       # Writes before turning the bus around for reads
system.mem_ctrls.totQLat                 176453854250                       # Total ticks spent queuing
system.mem_ctrls.totMemAccLat            323285498000                       # Total ticks spent from burst creation until serviced by the DRAM
system.mem_ctrls.totBusLat                39155105000                       # Total ticks spent in databus transfers
system.mem_ctrls.avgQLat                     22532.68                       # Average queueing delay per DRAM burst
system.mem_ctrls.avgBusLat                    5000.00                       # Average bus latency per DRAM burst
system.mem_ctrls.avgMemAccLat                41282.68                       # Average memory access latency per DRAM burst
system.mem_ctrls.avgRdBW                       285.62                       # Average DRAM read bandwidth in MiByte/s
system.mem_ctrls.avgWrBW                        45.24                       # Average achieved write bandwidth in MiByte/s
system.mem_ctrls.avgRdBWSys                    286.08                       # Average system read bandwidth in MiByte/s
system.mem_ctrls.avgWrBWSys                     45.24                       # Average system write bandwidth in MiByte/s
system.mem_ctrls.peakBW                      12800.00                       # Theoretical peak bandwidth in MiByte/s
system.mem_ctrls.busUtil                         2.58                       # Data bus utilization in percentage
system.mem_ctrls.busUtilRead                     2.23                       # Data bus utilization in percentage for reads
system.mem_ctrls.busUtilWrite                    0.35                       # Data bus utilization in percentage for writes
system.mem_ctrls.avgRdQLen                       1.00                       # Average read queue length when enqueuing
system.mem_ctrls.avgWrQLen                      24.89                       # Average write queue length when enqueuing
system.mem_ctrls.readRowHits                  1619931                       # Number of row buffer hits during reads
system.mem_ctrls.writeRowHits                  730328                       # Number of row buffer hits during writes
system.mem_ctrls.readRowHitRate                 20.69                       # Row buffer hit rate for reads
system.mem_ctrls.writeRowHitRate                58.88                       # Row buffer hit rate for writes
system.mem_ctrls.avgGap                     193168.99                       # Average gap between requests
system.mem_ctrls.pageHitRate                    25.91                       # Row buffer hit rate, read and write combined
system.mem_ctrls_0.actEnergy              25130710080                       # Energy for activate commands per rank (pJ)
system.mem_ctrls_0.preEnergy              13712193000                       # Energy for precharge commands per rank (pJ)
system.mem_ctrls_0.readEnergy             30238104000                       # Energy for read commands per rank (pJ)
system.mem_ctrls_0.writeEnergy             4017794400                       # Energy for write commands per rank (pJ)
system.mem_ctrls_0.refreshEnergy         114608064480                       # Energy for refresh commands per rank (pJ)
system.mem_ctrls_0.actBackEnergy         932447791260                       # Energy for active background per rank (pJ)
system.mem_ctrls_0.preBackEnergy         234879725250                       # Energy for precharge background per rank (pJ)
system.mem_ctrls_0.totalEnergy           1355034382470                       # Total energy per rank (pJ)
system.mem_ctrls_0.averagePower            772.234021                       # Core power per rank (mW)
system.mem_ctrls_0.memoryStateTime::IDLE 385251829750                       # Time in different power states
system.mem_ctrls_0.memoryStateTime::REF   58593080000                       # Time in different power states
system.mem_ctrls_0.memoryStateTime::PRE_PDN            0                       # Time in different power states
system.mem_ctrls_0.memoryStateTime::ACT  1310849077750                       # Time in different power states
system.mem_ctrls_0.memoryStateTime::ACT_PDN            0                       # Time in different power states
system.mem_ctrls_1.actEnergy              25680216240                       # Energy for activate commands per rank (pJ)
system.mem_ctrls_1.preEnergy              14012022750                       # Energy for precharge commands per rank (pJ)
system.mem_ctrls_1.readEnergy             30843859800                       # Energy for read commands per rank (pJ)
system.mem_ctrls_1.writeEnergy             4019090400                       # Energy for write commands per rank (pJ)
system.mem_ctrls_1.refreshEnergy         114608064480                       # Energy for refresh commands per rank (pJ)
system.mem_ctrls_1.actBackEnergy         932468939685                       # Energy for active background per rank (pJ)
system.mem_ctrls_1.preBackEnergy         234861174000                       # Energy for precharge background per rank (pJ)
system.mem_ctrls_1.totalEnergy           1356493367355                       # Total energy per rank (pJ)
system.mem_ctrls_1.averagePower            773.065496                       # Core power per rank (mW)
system.mem_ctrls_1.memoryStateTime::IDLE 384972937500                       # Time in different power states
system.mem_ctrls_1.memoryStateTime::REF   58593080000                       # Time in different power states
system.mem_ctrls_1.memoryStateTime::PRE_PDN            0                       # Time in different power states
system.mem_ctrls_1.memoryStateTime::ACT  1311127970000                       # Time in different power states
system.mem_ctrls_1.memoryStateTime::ACT_PDN            0                       # Time in different power states
system.cpu_voltage_domain.voltage                   1                       # Voltage in Volts
system.cpu_clk_domain.clock                       500                       # Clock period in ticks
system.cpu.apic_clk_domain.clock                 8000                       # Clock period in ticks
system.cpu.workload.num_syscalls                  168                       # Number of system calls
system.cpu.numCycles                       3509402647                       # number of cpu cycles simulated
system.cpu.numWorkItemsStarted                      0                       # number of work items this cpu started
system.cpu.numWorkItemsCompleted                    0                       # number of work items this cpu completed
system.cpu.committedInsts                   500000000                       # Number of instructions committed
system.cpu.committedOps                     876313787                       # Number of ops (including micro ops) committed
system.cpu.num_int_alu_accesses             872966684                       # Number of integer alu accesses
system.cpu.num_fp_alu_accesses                2882231                       # Number of float alu accesses
system.cpu.num_func_calls                    11025254                       # number of times a function call or return occured
system.cpu.num_conditional_control_insts     75981010                       # number of instructions that are conditional controls
system.cpu.num_int_insts                    872966684                       # number of integer instructions
system.cpu.num_fp_insts                       2882231                       # number of float instructions
system.cpu.num_int_register_reads          1835046968                       # number of times the integer registers were read
system.cpu.num_int_register_writes          703076421                       # number of times the integer registers were written
system.cpu.num_fp_register_reads              4386063                       # number of times the floating registers were read
system.cpu.num_fp_register_writes             2464405                       # number of times the floating registers were written
system.cpu.num_cc_register_reads            441654672                       # number of times the CC registers were read
system.cpu.num_cc_register_writes           253505512                       # number of times the CC registers were written
system.cpu.num_mem_refs                     293763601                       # number of memory refs
system.cpu.num_load_insts                   221285044                       # Number of load instructions
system.cpu.num_store_insts                   72478557                       # Number of store instructions
system.cpu.num_idle_cycles                          0                       # Number of idle cycles
system.cpu.num_busy_cycles                 3509402647                       # Number of busy cycles
system.cpu.not_idle_fraction                        1                       # Percentage of non-idle cycles
system.cpu.idle_fraction                            0                       # Percentage of idle cycles
system.cpu.Branches                          97901002                       # Number of branches fetched
system.cpu.op_class::No_OpClass                939429      0.11%      0.11% # Class of executed instruction
system.cpu.op_class::IntAlu                 578420256     66.01%     66.11% # Class of executed instruction
system.cpu.op_class::IntMult                   907073      0.10%     66.22% # Class of executed instruction
system.cpu.op_class::IntDiv                        42      0.00%     66.22% # Class of executed instruction
system.cpu.op_class::FloatAdd                 2283386      0.26%     66.48% # Class of executed instruction
system.cpu.op_class::FloatCmp                       0      0.00%     66.48% # Class of executed instruction
system.cpu.op_class::FloatCvt                       0      0.00%     66.48% # Class of executed instruction
system.cpu.op_class::FloatMult                      0      0.00%     66.48% # Class of executed instruction
system.cpu.op_class::FloatDiv                       0      0.00%     66.48% # Class of executed instruction
system.cpu.op_class::FloatSqrt                      0      0.00%     66.48% # Class of executed instruction
system.cpu.op_class::SimdAdd                        0      0.00%     66.48% # Class of executed instruction
system.cpu.op_class::SimdAddAcc                     0      0.00%     66.48% # Class of executed instruction
system.cpu.op_class::SimdAlu                        0      0.00%     66.48% # Class of executed instruction
system.cpu.op_class::SimdCmp                        0      0.00%     66.48% # Class of executed instruction
system.cpu.op_class::SimdCvt                        0      0.00%     66.48% # Class of executed instruction
system.cpu.op_class::SimdMisc                       0      0.00%     66.48% # Class of executed instruction
system.cpu.op_class::SimdMult                       0      0.00%     66.48% # Class of executed instruction
system.cpu.op_class::SimdMultAcc                    0      0.00%     66.48% # Class of executed instruction
system.cpu.op_class::SimdShift                      0      0.00%     66.48% # Class of executed instruction
system.cpu.op_class::SimdShiftAcc                   0      0.00%     66.48% # Class of executed instruction
system.cpu.op_class::SimdSqrt                       0      0.00%     66.48% # Class of executed instruction
system.cpu.op_class::SimdFloatAdd                   0      0.00%     66.48% # Class of executed instruction
system.cpu.op_class::SimdFloatAlu                   0      0.00%     66.48% # Class of executed instruction
system.cpu.op_class::SimdFloatCmp                   0      0.00%     66.48% # Class of executed instruction
system.cpu.op_class::SimdFloatCvt                   0      0.00%     66.48% # Class of executed instruction
system.cpu.op_class::SimdFloatDiv                   0      0.00%     66.48% # Class of executed instruction
system.cpu.op_class::SimdFloatMisc                  0      0.00%     66.48% # Class of executed instruction
system.cpu.op_class::SimdFloatMult                  0      0.00%     66.48% # Class of executed instruction
system.cpu.op_class::SimdFloatMultAcc               0      0.00%     66.48% # Class of executed instruction
system.cpu.op_class::SimdFloatSqrt                  0      0.00%     66.48% # Class of executed instruction
system.cpu.op_class::MemRead                221285044     25.25%     91.73% # Class of executed instruction
system.cpu.op_class::MemWrite                72478557      8.27%    100.00% # Class of executed instruction
system.cpu.op_class::IprAccess                      0      0.00%    100.00% # Class of executed instruction
system.cpu.op_class::InstPrefetch                   0      0.00%    100.00% # Class of executed instruction
system.cpu.op_class::total                  876313787                       # Class of executed instruction
system.cpu.dcache.tags.replacements          12499794                       # number of replacements
system.cpu.dcache.tags.tagsinuse          1023.846230                       # Cycle average of tags in use
system.cpu.dcache.tags.total_refs           281276911                       # Total number of references to valid blocks.
system.cpu.dcache.tags.sampled_refs          12500818                       # Sample count of references to valid blocks.
system.cpu.dcache.tags.avg_refs             22.500680                       # Average number of references to valid blocks.
system.cpu.dcache.tags.warmup_cycle         669207500                       # Cycle when the warmup percentage was hit.
system.cpu.dcache.tags.occ_blocks::cpu.data  1023.846230                       # Average occupied blocks per requestor
system.cpu.dcache.tags.occ_percent::cpu.data     0.999850                       # Average percentage of cache occupancy
system.cpu.dcache.tags.occ_percent::total     0.999850                       # Average percentage of cache occupancy
system.cpu.dcache.tags.occ_task_id_blocks::1024         1024                       # Occupied blocks per task id
system.cpu.dcache.tags.age_task_id_blocks_1024::0            5                       # Occupied blocks per task id
system.cpu.dcache.tags.age_task_id_blocks_1024::1          614                       # Occupied blocks per task id
system.cpu.dcache.tags.age_task_id_blocks_1024::2          391                       # Occupied blocks per task id
system.cpu.dcache.tags.age_task_id_blocks_1024::3           12                       # Occupied blocks per task id
system.cpu.dcache.tags.age_task_id_blocks_1024::4            2                       # Occupied blocks per task id
system.cpu.dcache.tags.occ_task_id_percent::1024            1                       # Percentage of cache occupancy per task id
system.cpu.dcache.tags.tag_accesses        1187611734                       # Number of tag accesses
system.cpu.dcache.tags.data_accesses       1187611734                       # Number of data accesses
system.cpu.dcache.ReadReq_hits::cpu.data    209214783                       # number of ReadReq hits
system.cpu.dcache.ReadReq_hits::total       209214783                       # number of ReadReq hits
system.cpu.dcache.WriteReq_hits::cpu.data     72062128                       # number of WriteReq hits
system.cpu.dcache.WriteReq_hits::total       72062128                       # number of WriteReq hits
system.cpu.dcache.demand_hits::cpu.data     281276911                       # number of demand (read+write) hits
system.cpu.dcache.demand_hits::total        281276911                       # number of demand (read+write) hits
system.cpu.dcache.overall_hits::cpu.data    281276911                       # number of overall hits
system.cpu.dcache.overall_hits::total       281276911                       # number of overall hits
system.cpu.dcache.ReadReq_misses::cpu.data     12084388                       # number of ReadReq misses
system.cpu.dcache.ReadReq_misses::total      12084388                       # number of ReadReq misses
system.cpu.dcache.WriteReq_misses::cpu.data       416430                       # number of WriteReq misses
system.cpu.dcache.WriteReq_misses::total       416430                       # number of WriteReq misses
system.cpu.dcache.demand_misses::cpu.data     12500818                       # number of demand (read+write) misses
system.cpu.dcache.demand_misses::total       12500818                       # number of demand (read+write) misses
system.cpu.dcache.overall_misses::cpu.data     12500818                       # number of overall misses
system.cpu.dcache.overall_misses::total      12500818                       # number of overall misses
system.cpu.dcache.ReadReq_miss_latency::cpu.data 774686106000                       # number of ReadReq miss cycles
system.cpu.dcache.ReadReq_miss_latency::total 774686106000                       # number of ReadReq miss cycles
system.cpu.dcache.WriteReq_miss_latency::cpu.data  21373461000                       # number of WriteReq miss cycles
system.cpu.dcache.WriteReq_miss_latency::total  21373461000                       # number of WriteReq miss cycles
system.cpu.dcache.demand_miss_latency::cpu.data 796059567000                       # number of demand (read+write) miss cycles
system.cpu.dcache.demand_miss_latency::total 796059567000                       # number of demand (read+write) miss cycles
system.cpu.dcache.overall_miss_latency::cpu.data 796059567000                       # number of overall miss cycles
system.cpu.dcache.overall_miss_latency::total 796059567000                       # number of overall miss cycles
system.cpu.dcache.ReadReq_accesses::cpu.data    221299171                       # number of ReadReq accesses(hits+misses)
system.cpu.dcache.ReadReq_accesses::total    221299171                       # number of ReadReq accesses(hits+misses)
system.cpu.dcache.WriteReq_accesses::cpu.data     72478558                       # number of WriteReq accesses(hits+misses)
system.cpu.dcache.WriteReq_accesses::total     72478558                       # number of WriteReq accesses(hits+misses)
system.cpu.dcache.demand_accesses::cpu.data    293777729                       # number of demand (read+write) accesses
system.cpu.dcache.demand_accesses::total    293777729                       # number of demand (read+write) accesses
system.cpu.dcache.overall_accesses::cpu.data    293777729                       # number of overall (read+write) accesses
system.cpu.dcache.overall_accesses::total    293777729                       # number of overall (read+write) accesses
system.cpu.dcache.ReadReq_miss_rate::cpu.data     0.054607                       # miss rate for ReadReq accesses
system.cpu.dcache.ReadReq_miss_rate::total     0.054607                       # miss rate for ReadReq accesses
system.cpu.dcache.WriteReq_miss_rate::cpu.data     0.005746                       # miss rate for WriteReq accesses
system.cpu.dcache.WriteReq_miss_rate::total     0.005746                       # miss rate for WriteReq accesses
system.cpu.dcache.demand_miss_rate::cpu.data     0.042552                       # miss rate for demand accesses
system.cpu.dcache.demand_miss_rate::total     0.042552                       # miss rate for demand accesses
system.cpu.dcache.overall_miss_rate::cpu.data     0.042552                       # miss rate for overall accesses
system.cpu.dcache.overall_miss_rate::total     0.042552                       # miss rate for overall accesses
system.cpu.dcache.ReadReq_avg_miss_latency::cpu.data 64106.358220                       # average ReadReq miss latency
system.cpu.dcache.ReadReq_avg_miss_latency::total 64106.358220                       # average ReadReq miss latency
system.cpu.dcache.WriteReq_avg_miss_latency::cpu.data 51325.459261                       # average WriteReq miss latency
system.cpu.dcache.WriteReq_avg_miss_latency::total 51325.459261                       # average WriteReq miss latency
system.cpu.dcache.demand_avg_miss_latency::cpu.data 63680.598102                       # average overall miss latency
system.cpu.dcache.demand_avg_miss_latency::total 63680.598102                       # average overall miss latency
system.cpu.dcache.overall_avg_miss_latency::cpu.data 63680.598102                       # average overall miss latency
system.cpu.dcache.overall_avg_miss_latency::total 63680.598102                       # average overall miss latency
system.cpu.dcache.blocked_cycles::no_mshrs            0                       # number of cycles access was blocked
system.cpu.dcache.blocked_cycles::no_targets            0                       # number of cycles access was blocked
system.cpu.dcache.blocked::no_mshrs                 0                       # number of cycles access was blocked
system.cpu.dcache.blocked::no_targets               0                       # number of cycles access was blocked
system.cpu.dcache.avg_blocked_cycles::no_mshrs          nan                       # average number of cycles each access was blocked
system.cpu.dcache.avg_blocked_cycles::no_targets          nan                       # average number of cycles each access was blocked
system.cpu.dcache.fast_writes                       0                       # number of fast writes performed
system.cpu.dcache.cache_copies                      0                       # number of cache copies performed
system.cpu.dcache.writebacks::writebacks      2098802                       # number of writebacks
system.cpu.dcache.writebacks::total           2098802                       # number of writebacks
system.cpu.dcache.ReadReq_mshr_misses::cpu.data     12084388                       # number of ReadReq MSHR misses
system.cpu.dcache.ReadReq_mshr_misses::total     12084388                       # number of ReadReq MSHR misses
system.cpu.dcache.WriteReq_mshr_misses::cpu.data       416430                       # number of WriteReq MSHR misses
system.cpu.dcache.WriteReq_mshr_misses::total       416430                       # number of WriteReq MSHR misses
system.cpu.dcache.demand_mshr_misses::cpu.data     12500818                       # number of demand (read+write) MSHR misses
system.cpu.dcache.demand_mshr_misses::total     12500818                       # number of demand (read+write) MSHR misses
system.cpu.dcache.overall_mshr_misses::cpu.data     12500818                       # number of overall MSHR misses
system.cpu.dcache.overall_mshr_misses::total     12500818                       # number of overall MSHR misses
system.cpu.dcache.ReadReq_mshr_miss_latency::cpu.data 762601718000                       # number of ReadReq MSHR miss cycles
system.cpu.dcache.ReadReq_mshr_miss_latency::total 762601718000                       # number of ReadReq MSHR miss cycles
system.cpu.dcache.WriteReq_mshr_miss_latency::cpu.data  20957031000                       # number of WriteReq MSHR miss cycles
system.cpu.dcache.WriteReq_mshr_miss_latency::total  20957031000                       # number of WriteReq MSHR miss cycles
system.cpu.dcache.demand_mshr_miss_latency::cpu.data 783558749000                       # number of demand (read+write) MSHR miss cycles
system.cpu.dcache.demand_mshr_miss_latency::total 783558749000                       # number of demand (read+write) MSHR miss cycles
system.cpu.dcache.overall_mshr_miss_latency::cpu.data 783558749000                       # number of overall MSHR miss cycles
system.cpu.dcache.overall_mshr_miss_latency::total 783558749000                       # number of overall MSHR miss cycles
system.cpu.dcache.ReadReq_mshr_miss_rate::cpu.data     0.054607                       # mshr miss rate for ReadReq accesses
system.cpu.dcache.ReadReq_mshr_miss_rate::total     0.054607                       # mshr miss rate for ReadReq accesses
system.cpu.dcache.WriteReq_mshr_miss_rate::cpu.data     0.005746                       # mshr miss rate for WriteReq accesses
system.cpu.dcache.WriteReq_mshr_miss_rate::total     0.005746                       # mshr miss rate for WriteReq accesses
system.cpu.dcache.demand_mshr_miss_rate::cpu.data     0.042552                       # mshr miss rate for demand accesses
system.cpu.dcache.demand_mshr_miss_rate::total     0.042552                       # mshr miss rate for demand accesses
system.cpu.dcache.overall_mshr_miss_rate::cpu.data     0.042552                       # mshr miss rate for overall accesses
system.cpu.dcache.overall_mshr_miss_rate::total     0.042552                       # mshr miss rate for overall accesses
system.cpu.dcache.ReadReq_avg_mshr_miss_latency::cpu.data 63106.358220                       # average ReadReq mshr miss latency
system.cpu.dcache.ReadReq_avg_mshr_miss_latency::total 63106.358220                       # average ReadReq mshr miss latency
system.cpu.dcache.WriteReq_avg_mshr_miss_latency::cpu.data 50325.459261                       # average WriteReq mshr miss latency
system.cpu.dcache.WriteReq_avg_mshr_miss_latency::total 50325.459261                       # average WriteReq mshr miss latency
system.cpu.dcache.demand_avg_mshr_miss_latency::cpu.data 62680.598102                       # average overall mshr miss latency
system.cpu.dcache.demand_avg_mshr_miss_latency::total 62680.598102                       # average overall mshr miss latency
system.cpu.dcache.overall_avg_mshr_miss_latency::cpu.data 62680.598102                       # average overall mshr miss latency
system.cpu.dcache.overall_avg_mshr_miss_latency::total 62680.598102                       # average overall mshr miss latency
system.cpu.dcache.no_allocate_misses                0                       # Number of misses that were no-allocate
system.cpu.dtb_walker_cache.tags.replacements            0                       # number of replacements
system.cpu.dtb_walker_cache.tags.tagsinuse            0                       # Cycle average of tags in use
system.cpu.dtb_walker_cache.tags.total_refs            0                       # Total number of references to valid blocks.
system.cpu.dtb_walker_cache.tags.sampled_refs            0                       # Sample count of references to valid blocks.
system.cpu.dtb_walker_cache.tags.avg_refs          nan                       # Average number of references to valid blocks.
system.cpu.dtb_walker_cache.tags.warmup_cycle            0                       # Cycle when the warmup percentage was hit.
system.cpu.dtb_walker_cache.tags.tag_accesses            0                       # Number of tag accesses
system.cpu.dtb_walker_cache.tags.data_accesses            0                       # Number of data accesses
system.cpu.dtb_walker_cache.blocked_cycles::no_mshrs            0                       # number of cycles access was blocked
system.cpu.dtb_walker_cache.blocked_cycles::no_targets            0                       # number of cycles access was blocked
system.cpu.dtb_walker_cache.blocked::no_mshrs            0                       # number of cycles access was blocked
system.cpu.dtb_walker_cache.blocked::no_targets            0                       # number of cycles access was blocked
system.cpu.dtb_walker_cache.avg_blocked_cycles::no_mshrs          nan                       # average number of cycles each access was blocked
system.cpu.dtb_walker_cache.avg_blocked_cycles::no_targets          nan                       # average number of cycles each access was blocked
system.cpu.dtb_walker_cache.fast_writes             0                       # number of fast writes performed
system.cpu.dtb_walker_cache.cache_copies            0                       # number of cache copies performed
system.cpu.dtb_walker_cache.no_allocate_misses            0                       # Number of misses that were no-allocate
system.cpu.icache.tags.replacements                31                       # number of replacements
system.cpu.icache.tags.tagsinuse           614.798862                       # Cycle average of tags in use
system.cpu.icache.tags.total_refs           677317269                       # Total number of references to valid blocks.
system.cpu.icache.tags.sampled_refs               677                       # Sample count of references to valid blocks.
system.cpu.icache.tags.avg_refs          1000468.639586                       # Average number of references to valid blocks.
system.cpu.icache.tags.warmup_cycle                 0                       # Cycle when the warmup percentage was hit.
system.cpu.icache.tags.occ_blocks::cpu.inst   614.798862                       # Average occupied blocks per requestor
system.cpu.icache.tags.occ_percent::cpu.inst     0.600390                       # Average percentage of cache occupancy
system.cpu.icache.tags.occ_percent::total     0.600390                       # Average percentage of cache occupancy
system.cpu.icache.tags.occ_task_id_blocks::1024          646                       # Occupied blocks per task id
system.cpu.icache.tags.age_task_id_blocks_1024::4          646                       # Occupied blocks per task id
system.cpu.icache.tags.occ_task_id_percent::1024     0.630859                       # Percentage of cache occupancy per task id
system.cpu.icache.tags.tag_accesses        2709272461                       # Number of tag accesses
system.cpu.icache.tags.data_accesses       2709272461                       # Number of data accesses
system.cpu.icache.ReadReq_hits::cpu.inst    677317269                       # number of ReadReq hits
system.cpu.icache.ReadReq_hits::total       677317269                       # number of ReadReq hits
system.cpu.icache.demand_hits::cpu.inst     677317269                       # number of demand (read+write) hits
system.cpu.icache.demand_hits::total        677317269                       # number of demand (read+write) hits
system.cpu.icache.overall_hits::cpu.inst    677317269                       # number of overall hits
system.cpu.icache.overall_hits::total       677317269                       # number of overall hits
system.cpu.icache.ReadReq_misses::cpu.inst          677                       # number of ReadReq misses
system.cpu.icache.ReadReq_misses::total           677                       # number of ReadReq misses
system.cpu.icache.demand_misses::cpu.inst          677                       # number of demand (read+write) misses
system.cpu.icache.demand_misses::total            677                       # number of demand (read+write) misses
system.cpu.icache.overall_misses::cpu.inst          677                       # number of overall misses
system.cpu.icache.overall_misses::total           677                       # number of overall misses
system.cpu.icache.ReadReq_miss_latency::cpu.inst     54643000                       # number of ReadReq miss cycles
system.cpu.icache.ReadReq_miss_latency::total     54643000                       # number of ReadReq miss cycles
system.cpu.icache.demand_miss_latency::cpu.inst     54643000                       # number of demand (read+write) miss cycles
system.cpu.icache.demand_miss_latency::total     54643000                       # number of demand (read+write) miss cycles
system.cpu.icache.overall_miss_latency::cpu.inst     54643000                       # number of overall miss cycles
system.cpu.icache.overall_miss_latency::total     54643000                       # number of overall miss cycles
system.cpu.icache.ReadReq_accesses::cpu.inst    677317946                       # number of ReadReq accesses(hits+misses)
system.cpu.icache.ReadReq_accesses::total    677317946                       # number of ReadReq accesses(hits+misses)
system.cpu.icache.demand_accesses::cpu.inst    677317946                       # number of demand (read+write) accesses
system.cpu.icache.demand_accesses::total    677317946                       # number of demand (read+write) accesses
system.cpu.icache.overall_accesses::cpu.inst    677317946                       # number of overall (read+write) accesses
system.cpu.icache.overall_accesses::total    677317946                       # number of overall (read+write) accesses
system.cpu.icache.ReadReq_miss_rate::cpu.inst     0.000001                       # miss rate for ReadReq accesses
system.cpu.icache.ReadReq_miss_rate::total     0.000001                       # miss rate for ReadReq accesses
system.cpu.icache.demand_miss_rate::cpu.inst     0.000001                       # miss rate for demand accesses
system.cpu.icache.demand_miss_rate::total     0.000001                       # miss rate for demand accesses
system.cpu.icache.overall_miss_rate::cpu.inst     0.000001                       # miss rate for overall accesses
system.cpu.icache.overall_miss_rate::total     0.000001                       # miss rate for overall accesses
system.cpu.icache.ReadReq_avg_miss_latency::cpu.inst 80713.441654                       # average ReadReq miss latency
system.cpu.icache.ReadReq_avg_miss_latency::total 80713.441654                       # average ReadReq miss latency
system.cpu.icache.demand_avg_miss_latency::cpu.inst 80713.441654                       # average overall miss latency
system.cpu.icache.demand_avg_miss_latency::total 80713.441654                       # average overall miss latency
system.cpu.icache.overall_avg_miss_latency::cpu.inst 80713.441654                       # average overall miss latency
system.cpu.icache.overall_avg_miss_latency::total 80713.441654                       # average overall miss latency
system.cpu.icache.blocked_cycles::no_mshrs            0                       # number of cycles access was blocked
system.cpu.icache.blocked_cycles::no_targets            0                       # number of cycles access was blocked
system.cpu.icache.blocked::no_mshrs                 0                       # number of cycles access was blocked
system.cpu.icache.blocked::no_targets               0                       # number of cycles access was blocked
system.cpu.icache.avg_blocked_cycles::no_mshrs          nan                       # average number of cycles each access was blocked
system.cpu.icache.avg_blocked_cycles::no_targets          nan                       # average number of cycles each access was blocked
system.cpu.icache.fast_writes                       0                       # number of fast writes performed
system.cpu.icache.cache_copies                      0                       # number of cache copies performed
system.cpu.icache.writebacks::writebacks           31                       # number of writebacks
system.cpu.icache.writebacks::total                31                       # number of writebacks
system.cpu.icache.ReadReq_mshr_misses::cpu.inst          677                       # number of ReadReq MSHR misses
system.cpu.icache.ReadReq_mshr_misses::total          677                       # number of ReadReq MSHR misses
system.cpu.icache.demand_mshr_misses::cpu.inst          677                       # number of demand (read+write) MSHR misses
system.cpu.icache.demand_mshr_misses::total          677                       # number of demand (read+write) MSHR misses
system.cpu.icache.overall_mshr_misses::cpu.inst          677                       # number of overall MSHR misses
system.cpu.icache.overall_mshr_misses::total          677                       # number of overall MSHR misses
system.cpu.icache.ReadReq_mshr_miss_latency::cpu.inst     53966000                       # number of ReadReq MSHR miss cycles
system.cpu.icache.ReadReq_mshr_miss_latency::total     53966000                       # number of ReadReq MSHR miss cycles
system.cpu.icache.demand_mshr_miss_latency::cpu.inst     53966000                       # number of demand (read+write) MSHR miss cycles
system.cpu.icache.demand_mshr_miss_latency::total     53966000                       # number of demand (read+write) MSHR miss cycles
system.cpu.icache.overall_mshr_miss_latency::cpu.inst     53966000                       # number of overall MSHR miss cycles
system.cpu.icache.overall_mshr_miss_latency::total     53966000                       # number of overall MSHR miss cycles
system.cpu.icache.ReadReq_mshr_miss_rate::cpu.inst     0.000001                       # mshr miss rate for ReadReq accesses
system.cpu.icache.ReadReq_mshr_miss_rate::total     0.000001                       # mshr miss rate for ReadReq accesses
system.cpu.icache.demand_mshr_miss_rate::cpu.inst     0.000001                       # mshr miss rate for demand accesses
system.cpu.icache.demand_mshr_miss_rate::total     0.000001                       # mshr miss rate for demand accesses
system.cpu.icache.overall_mshr_miss_rate::cpu.inst     0.000001                       # mshr miss rate for overall accesses
system.cpu.icache.overall_mshr_miss_rate::total     0.000001                       # mshr miss rate for overall accesses
system.cpu.icache.ReadReq_avg_mshr_miss_latency::cpu.inst 79713.441654                       # average ReadReq mshr miss latency
system.cpu.icache.ReadReq_avg_mshr_miss_latency::total 79713.441654                       # average ReadReq mshr miss latency
system.cpu.icache.demand_avg_mshr_miss_latency::cpu.inst 79713.441654                       # average overall mshr miss latency
system.cpu.icache.demand_avg_mshr_miss_latency::total 79713.441654                       # average overall mshr miss latency
system.cpu.icache.overall_avg_mshr_miss_latency::cpu.inst 79713.441654                       # average overall mshr miss latency
system.cpu.icache.overall_avg_mshr_miss_latency::total 79713.441654                       # average overall mshr miss latency
system.cpu.icache.no_allocate_misses                0                       # Number of misses that were no-allocate
system.cpu.itb_walker_cache.tags.replacements            0                       # number of replacements
system.cpu.itb_walker_cache.tags.tagsinuse            0                       # Cycle average of tags in use
system.cpu.itb_walker_cache.tags.total_refs            0                       # Total number of references to valid blocks.
system.cpu.itb_walker_cache.tags.sampled_refs            0                       # Sample count of references to valid blocks.
system.cpu.itb_walker_cache.tags.avg_refs          nan                       # Average number of references to valid blocks.
system.cpu.itb_walker_cache.tags.warmup_cycle            0                       # Cycle when the warmup percentage was hit.
system.cpu.itb_walker_cache.tags.tag_accesses            0                       # Number of tag accesses
system.cpu.itb_walker_cache.tags.data_accesses            0                       # Number of data accesses
system.cpu.itb_walker_cache.blocked_cycles::no_mshrs            0                       # number of cycles access was blocked
system.cpu.itb_walker_cache.blocked_cycles::no_targets            0                       # number of cycles access was blocked
system.cpu.itb_walker_cache.blocked::no_mshrs            0                       # number of cycles access was blocked
system.cpu.itb_walker_cache.blocked::no_targets            0                       # number of cycles access was blocked
system.cpu.itb_walker_cache.avg_blocked_cycles::no_mshrs          nan                       # average number of cycles each access was blocked
system.cpu.itb_walker_cache.avg_blocked_cycles::no_targets          nan                       # average number of cycles each access was blocked
system.cpu.itb_walker_cache.fast_writes             0                       # number of fast writes performed
system.cpu.itb_walker_cache.cache_copies            0                       # number of cache copies performed
system.cpu.itb_walker_cache.no_allocate_misses            0                       # Number of misses that were no-allocate
system.l2.tags.replacements                   7871815                       # number of replacements
system.l2.tags.tagsinuse                  4092.557123                       # Cycle average of tags in use
system.l2.tags.total_refs                    16673838                       # Total number of references to valid blocks.
system.l2.tags.sampled_refs                   7875905                       # Sample count of references to valid blocks.
system.l2.tags.avg_refs                      2.117069                       # Average number of references to valid blocks.
system.l2.tags.warmup_cycle                2425275000                       # Cycle when the warmup percentage was hit.
system.l2.tags.occ_blocks::writebacks      626.946566                       # Average occupied blocks per requestor
system.l2.tags.occ_blocks::cpu.inst          0.803408                       # Average occupied blocks per requestor
system.l2.tags.occ_blocks::cpu.data       3464.807149                       # Average occupied blocks per requestor
system.l2.tags.occ_percent::writebacks       0.153063                       # Average percentage of cache occupancy
system.l2.tags.occ_percent::cpu.inst         0.000196                       # Average percentage of cache occupancy
system.l2.tags.occ_percent::cpu.data         0.845900                       # Average percentage of cache occupancy
system.l2.tags.occ_percent::total            0.999159                       # Average percentage of cache occupancy
system.l2.tags.occ_task_id_blocks::1024          4090                       # Occupied blocks per task id
system.l2.tags.age_task_id_blocks_1024::1          493                       # Occupied blocks per task id
system.l2.tags.age_task_id_blocks_1024::2         3124                       # Occupied blocks per task id
system.l2.tags.age_task_id_blocks_1024::3          468                       # Occupied blocks per task id
system.l2.tags.age_task_id_blocks_1024::4            5                       # Occupied blocks per task id
system.l2.tags.occ_task_id_percent::1024     0.998535                       # Percentage of cache occupancy per task id
system.l2.tags.tag_accesses              102413694959                       # Number of tag accesses
system.l2.tags.data_accesses             102413694959                       # Number of data accesses
system.l2.WritebackDirty_hits::writebacks      2098802                       # number of WritebackDirty hits
system.l2.WritebackDirty_hits::total          2098802                       # number of WritebackDirty hits
system.l2.WritebackClean_hits::writebacks           31                       # number of WritebackClean hits
system.l2.WritebackClean_hits::total               31                       # number of WritebackClean hits
system.l2.ReadExReq_hits::cpu.data             184888                       # number of ReadExReq hits
system.l2.ReadExReq_hits::total                184888                       # number of ReadExReq hits
system.l2.ReadCleanReq_hits::cpu.inst               2                       # number of ReadCleanReq hits
system.l2.ReadCleanReq_hits::total                  2                       # number of ReadCleanReq hits
system.l2.ReadSharedReq_hits::cpu.data        4473221                       # number of ReadSharedReq hits
system.l2.ReadSharedReq_hits::total           4473221                       # number of ReadSharedReq hits
system.l2.demand_hits::cpu.inst                     2                       # number of demand (read+write) hits
system.l2.demand_hits::cpu.data               4658109                       # number of demand (read+write) hits
system.l2.demand_hits::total                  4658111                       # number of demand (read+write) hits
system.l2.overall_hits::cpu.inst                    2                       # number of overall hits
system.l2.overall_hits::cpu.data              4658109                       # number of overall hits
system.l2.overall_hits::total                 4658111                       # number of overall hits
system.l2.ReadExReq_misses::cpu.data           231542                       # number of ReadExReq misses
system.l2.ReadExReq_misses::total              231542                       # number of ReadExReq misses
system.l2.ReadCleanReq_misses::cpu.inst           675                       # number of ReadCleanReq misses
system.l2.ReadCleanReq_misses::total              675                       # number of ReadCleanReq misses
system.l2.ReadSharedReq_misses::cpu.data      7611167                       # number of ReadSharedReq misses
system.l2.ReadSharedReq_misses::total         7611167                       # number of ReadSharedReq misses
system.l2.demand_misses::cpu.inst                 675                       # number of demand (read+write) misses
system.l2.demand_misses::cpu.data             7842709                       # number of demand (read+write) misses
system.l2.demand_misses::total                7843384                       # number of demand (read+write) misses
system.l2.overall_misses::cpu.inst                675                       # number of overall misses
system.l2.overall_misses::cpu.data            7842709                       # number of overall misses
system.l2.overall_misses::total               7843384                       # number of overall misses
system.l2.ReadExReq_miss_latency::cpu.data  18391061500                       # number of ReadExReq miss cycles
system.l2.ReadExReq_miss_latency::total   18391061500                       # number of ReadExReq miss cycles
system.l2.ReadCleanReq_miss_latency::cpu.inst     52926000                       # number of ReadCleanReq miss cycles
system.l2.ReadCleanReq_miss_latency::total     52926000                       # number of ReadCleanReq miss cycles
system.l2.ReadSharedReq_miss_latency::cpu.data 697506315500                       # number of ReadSharedReq miss cycles
system.l2.ReadSharedReq_miss_latency::total 697506315500                       # number of ReadSharedReq miss cycles
system.l2.demand_miss_latency::cpu.inst      52926000                       # number of demand (read+write) miss cycles
system.l2.demand_miss_latency::cpu.data  715897377000                       # number of demand (read+write) miss cycles
system.l2.demand_miss_latency::total     715950303000                       # number of demand (read+write) miss cycles
system.l2.overall_miss_latency::cpu.inst     52926000                       # number of overall miss cycles
system.l2.overall_miss_latency::cpu.data 715897377000                       # number of overall miss cycles
system.l2.overall_miss_latency::total    715950303000                       # number of overall miss cycles
system.l2.WritebackDirty_accesses::writebacks      2098802                       # number of WritebackDirty accesses(hits+misses)
system.l2.WritebackDirty_accesses::total      2098802                       # number of WritebackDirty accesses(hits+misses)
system.l2.WritebackClean_accesses::writebacks           31                       # number of WritebackClean accesses(hits+misses)
system.l2.WritebackClean_accesses::total           31                       # number of WritebackClean accesses(hits+misses)
system.l2.ReadExReq_accesses::cpu.data         416430                       # number of ReadExReq accesses(hits+misses)
system.l2.ReadExReq_accesses::total            416430                       # number of ReadExReq accesses(hits+misses)
system.l2.ReadCleanReq_accesses::cpu.inst          677                       # number of ReadCleanReq accesses(hits+misses)
system.l2.ReadCleanReq_accesses::total            677                       # number of ReadCleanReq accesses(hits+misses)
system.l2.ReadSharedReq_accesses::cpu.data     12084388                       # number of ReadSharedReq accesses(hits+misses)
system.l2.ReadSharedReq_accesses::total      12084388                       # number of ReadSharedReq accesses(hits+misses)
system.l2.demand_accesses::cpu.inst               677                       # number of demand (read+write) accesses
system.l2.demand_accesses::cpu.data          12500818                       # number of demand (read+write) accesses
system.l2.demand_accesses::total             12501495                       # number of demand (read+write) accesses
system.l2.overall_accesses::cpu.inst              677                       # number of overall (read+write) accesses
system.l2.overall_accesses::cpu.data         12500818                       # number of overall (read+write) accesses
system.l2.overall_accesses::total            12501495                       # number of overall (read+write) accesses
system.l2.ReadExReq_miss_rate::cpu.data      0.556017                       # miss rate for ReadExReq accesses
system.l2.ReadExReq_miss_rate::total         0.556017                       # miss rate for ReadExReq accesses
system.l2.ReadCleanReq_miss_rate::cpu.inst     0.997046                       # miss rate for ReadCleanReq accesses
system.l2.ReadCleanReq_miss_rate::total      0.997046                       # miss rate for ReadCleanReq accesses
system.l2.ReadSharedReq_miss_rate::cpu.data     0.629835                       # miss rate for ReadSharedReq accesses
system.l2.ReadSharedReq_miss_rate::total     0.629835                       # miss rate for ReadSharedReq accesses
system.l2.demand_miss_rate::cpu.inst         0.997046                       # miss rate for demand accesses
system.l2.demand_miss_rate::cpu.data         0.627376                       # miss rate for demand accesses
system.l2.demand_miss_rate::total            0.627396                       # miss rate for demand accesses
system.l2.overall_miss_rate::cpu.inst        0.997046                       # miss rate for overall accesses
system.l2.overall_miss_rate::cpu.data        0.627376                       # miss rate for overall accesses
system.l2.overall_miss_rate::total           0.627396                       # miss rate for overall accesses
system.l2.ReadExReq_avg_miss_latency::cpu.data 79428.619862                       # average ReadExReq miss latency
system.l2.ReadExReq_avg_miss_latency::total 79428.619862                       # average ReadExReq miss latency
system.l2.ReadCleanReq_avg_miss_latency::cpu.inst 78408.888889                       # average ReadCleanReq miss latency
system.l2.ReadCleanReq_avg_miss_latency::total 78408.888889                       # average ReadCleanReq miss latency
system.l2.ReadSharedReq_avg_miss_latency::cpu.data 91642.492603                       # average ReadSharedReq miss latency
system.l2.ReadSharedReq_avg_miss_latency::total 91642.492603                       # average ReadSharedReq miss latency
system.l2.demand_avg_miss_latency::cpu.inst 78408.888889                       # average overall miss latency
system.l2.demand_avg_miss_latency::cpu.data 91281.899787                       # average overall miss latency
system.l2.demand_avg_miss_latency::total 91280.791939                       # average overall miss latency
system.l2.overall_avg_miss_latency::cpu.inst 78408.888889                       # average overall miss latency
system.l2.overall_avg_miss_latency::cpu.data 91281.899787                       # average overall miss latency
system.l2.overall_avg_miss_latency::total 91280.791939                       # average overall miss latency
system.l2.blocked_cycles::no_mshrs                  0                       # number of cycles access was blocked
system.l2.blocked_cycles::no_targets                0                       # number of cycles access was blocked
system.l2.blocked::no_mshrs                         0                       # number of cycles access was blocked
system.l2.blocked::no_targets                       0                       # number of cycles access was blocked
system.l2.avg_blocked_cycles::no_mshrs            nan                       # average number of cycles each access was blocked
system.l2.avg_blocked_cycles::no_targets          nan                       # average number of cycles each access was blocked
system.l2.fast_writes                               0                       # number of fast writes performed
system.l2.cache_copies                              0                       # number of cache copies performed
system.l2.writebacks::writebacks              1240290                       # number of writebacks
system.l2.writebacks::total                   1240290                       # number of writebacks
system.l2.CleanEvict_mshr_misses::writebacks        35140                       # number of CleanEvict MSHR misses
system.l2.CleanEvict_mshr_misses::total         35140                       # number of CleanEvict MSHR misses
system.l2.ReadExReq_mshr_misses::cpu.data       231542                       # number of ReadExReq MSHR misses
system.l2.ReadExReq_mshr_misses::total         231542                       # number of ReadExReq MSHR misses
system.l2.ReadCleanReq_mshr_misses::cpu.inst          675                       # number of ReadCleanReq MSHR misses
system.l2.ReadCleanReq_mshr_misses::total          675                       # number of ReadCleanReq MSHR misses
system.l2.ReadSharedReq_mshr_misses::cpu.data      7611167                       # number of ReadSharedReq MSHR misses
system.l2.ReadSharedReq_mshr_misses::total      7611167                       # number of ReadSharedReq MSHR misses
system.l2.demand_mshr_misses::cpu.inst            675                       # number of demand (read+write) MSHR misses
system.l2.demand_mshr_misses::cpu.data        7842709                       # number of demand (read+write) MSHR misses
system.l2.demand_mshr_misses::total           7843384                       # number of demand (read+write) MSHR misses
system.l2.overall_mshr_misses::cpu.inst           675                       # number of overall MSHR misses
system.l2.overall_mshr_misses::cpu.data       7842709                       # number of overall MSHR misses
system.l2.overall_mshr_misses::total          7843384                       # number of overall MSHR misses
system.l2.ReadExReq_mshr_miss_latency::cpu.data  16075641500                       # number of ReadExReq MSHR miss cycles
system.l2.ReadExReq_mshr_miss_latency::total  16075641500                       # number of ReadExReq MSHR miss cycles
system.l2.ReadCleanReq_mshr_miss_latency::cpu.inst     46176000                       # number of ReadCleanReq MSHR miss cycles
system.l2.ReadCleanReq_mshr_miss_latency::total     46176000                       # number of ReadCleanReq MSHR miss cycles
system.l2.ReadSharedReq_mshr_miss_latency::cpu.data 621394645500                       # number of ReadSharedReq MSHR miss cycles
system.l2.ReadSharedReq_mshr_miss_latency::total 621394645500                       # number of ReadSharedReq MSHR miss cycles
system.l2.demand_mshr_miss_latency::cpu.inst     46176000                       # number of demand (read+write) MSHR miss cycles
system.l2.demand_mshr_miss_latency::cpu.data 637470287000                       # number of demand (read+write) MSHR miss cycles
system.l2.demand_mshr_miss_latency::total 637516463000                       # number of demand (read+write) MSHR miss cycles
system.l2.overall_mshr_miss_latency::cpu.inst     46176000                       # number of overall MSHR miss cycles
system.l2.overall_mshr_miss_latency::cpu.data 637470287000                       # number of overall MSHR miss cycles
system.l2.overall_mshr_miss_latency::total 637516463000                       # number of overall MSHR miss cycles
system.l2.CleanEvict_mshr_miss_rate::writebacks          inf                       # mshr miss rate for CleanEvict accesses
system.l2.CleanEvict_mshr_miss_rate::total          inf                       # mshr miss rate for CleanEvict accesses
system.l2.ReadExReq_mshr_miss_rate::cpu.data     0.556017                       # mshr miss rate for ReadExReq accesses
system.l2.ReadExReq_mshr_miss_rate::total     0.556017                       # mshr miss rate for ReadExReq accesses
system.l2.ReadCleanReq_mshr_miss_rate::cpu.inst     0.997046                       # mshr miss rate for ReadCleanReq accesses
system.l2.ReadCleanReq_mshr_miss_rate::total     0.997046                       # mshr miss rate for ReadCleanReq accesses
system.l2.ReadSharedReq_mshr_miss_rate::cpu.data     0.629835                       # mshr miss rate for ReadSharedReq accesses
system.l2.ReadSharedReq_mshr_miss_rate::total     0.629835                       # mshr miss rate for ReadSharedReq accesses
system.l2.demand_mshr_miss_rate::cpu.inst     0.997046                       # mshr miss rate for demand accesses
system.l2.demand_mshr_miss_rate::cpu.data     0.627376                       # mshr miss rate for demand accesses
system.l2.demand_mshr_miss_rate::total       0.627396                       # mshr miss rate for demand accesses
system.l2.overall_mshr_miss_rate::cpu.inst     0.997046                       # mshr miss rate for overall accesses
system.l2.overall_mshr_miss_rate::cpu.data     0.627376                       # mshr miss rate for overall accesses
system.l2.overall_mshr_miss_rate::total      0.627396                       # mshr miss rate for overall accesses
system.l2.ReadExReq_avg_mshr_miss_latency::cpu.data 69428.619862                       # average ReadExReq mshr miss latency
system.l2.ReadExReq_avg_mshr_miss_latency::total 69428.619862                       # average ReadExReq mshr miss latency
system.l2.ReadCleanReq_avg_mshr_miss_latency::cpu.inst 68408.888889                       # average ReadCleanReq mshr miss latency
system.l2.ReadCleanReq_avg_mshr_miss_latency::total 68408.888889                       # average ReadCleanReq mshr miss latency
system.l2.ReadSharedReq_avg_mshr_miss_latency::cpu.data 81642.492603                       # average ReadSharedReq mshr miss latency
system.l2.ReadSharedReq_avg_mshr_miss_latency::total 81642.492603                       # average ReadSharedReq mshr miss latency
system.l2.demand_avg_mshr_miss_latency::cpu.inst 68408.888889                       # average overall mshr miss latency
system.l2.demand_avg_mshr_miss_latency::cpu.data 81281.899787                       # average overall mshr miss latency
system.l2.demand_avg_mshr_miss_latency::total 81280.791939                       # average overall mshr miss latency
system.l2.overall_avg_mshr_miss_latency::cpu.inst 68408.888889                       # average overall mshr miss latency
system.l2.overall_avg_mshr_miss_latency::cpu.data 81281.899787                       # average overall mshr miss latency
system.l2.overall_avg_mshr_miss_latency::total 81280.791939                       # average overall mshr miss latency
system.l2.no_allocate_misses                        0                       # Number of misses that were no-allocate
system.membus.trans_dist::ReadResp            7611842                       # Transaction distribution
system.membus.trans_dist::WritebackDirty      1240290                       # Transaction distribution
system.membus.trans_dist::CleanEvict          6598286                       # Transaction distribution
system.membus.trans_dist::ReadExReq            231542                       # Transaction distribution
system.membus.trans_dist::ReadExResp           231542                       # Transaction distribution
system.membus.trans_dist::ReadSharedReq       7611842                       # Transaction distribution
system.membus.pkt_count_system.l2.mem_side::system.mem_ctrls.port     23525344                       # Packet count per connected master and slave (bytes)
system.membus.pkt_count_system.l2.mem_side::total     23525344                       # Packet count per connected master and slave (bytes)
system.membus.pkt_count::total               23525344                       # Packet count per connected master and slave (bytes)
system.membus.pkt_size_system.l2.mem_side::system.mem_ctrls.port    581355136                       # Cumulative packet size per connected master and slave (bytes)
system.membus.pkt_size_system.l2.mem_side::total    581355136                       # Cumulative packet size per connected master and slave (bytes)
system.membus.pkt_size::total               581355136                       # Cumulative packet size per connected master and slave (bytes)
system.membus.snoops                                0                       # Total snoops (count)
system.membus.snoop_fanout::samples          15681960                       # Request fanout histogram
system.membus.snoop_fanout::mean                    0                       # Request fanout histogram
system.membus.snoop_fanout::stdev                   0                       # Request fanout histogram
system.membus.snoop_fanout::underflows              0      0.00%      0.00% # Request fanout histogram
system.membus.snoop_fanout::0                15681960    100.00%    100.00% # Request fanout histogram
system.membus.snoop_fanout::1                       0      0.00%    100.00% # Request fanout histogram
system.membus.snoop_fanout::overflows               0      0.00%    100.00% # Request fanout histogram
system.membus.snoop_fanout::min_value               0                       # Request fanout histogram
system.membus.snoop_fanout::max_value               0                       # Request fanout histogram
system.membus.snoop_fanout::total            15681960                       # Request fanout histogram
system.membus.reqLayer2.occupancy         20650185000                       # Layer occupancy (ticks)
system.membus.reqLayer2.utilization               1.2                       # Layer utilization (%)
system.membus.respLayer1.occupancy        43742148000                       # Layer occupancy (ticks)
system.membus.respLayer1.utilization              2.5                       # Layer utilization (%)
system.tol2bus.snoop_filter.tot_requests     25001320                       # Total number of requests made to the snoop filter.
system.tol2bus.snoop_filter.hit_single_requests     12499825                       # Number of requests hitting in the snoop filter with a single holder of the requested data.
system.tol2bus.snoop_filter.hit_multi_requests            1                       # Number of requests hitting in the snoop filter with multiple (>1) holders of the requested data.
system.tol2bus.snoop_filter.tot_snoops          68379                       # Total number of snoops made to the snoop filter.
system.tol2bus.snoop_filter.hit_single_snoops        68379                       # Number of snoops hitting in the snoop filter with a single holder of the requested data.
system.tol2bus.snoop_filter.hit_multi_snoops            0                       # Number of snoops hitting in the snoop filter with multiple (>1) holders of the requested data.
system.tol2bus.trans_dist::ReadResp          12085065                       # Transaction distribution
system.tol2bus.trans_dist::WritebackDirty      3339092                       # Transaction distribution
system.tol2bus.trans_dist::WritebackClean           31                       # Transaction distribution
system.tol2bus.trans_dist::CleanEvict        17032516                       # Transaction distribution
system.tol2bus.trans_dist::ReadExReq           416430                       # Transaction distribution
system.tol2bus.trans_dist::ReadExResp          416430                       # Transaction distribution
system.tol2bus.trans_dist::ReadCleanReq           677                       # Transaction distribution
system.tol2bus.trans_dist::ReadSharedReq     12084388                       # Transaction distribution
system.tol2bus.pkt_count_system.cpu.icache.mem_side::system.l2.cpu_side         1385                       # Packet count per connected master and slave (bytes)
system.tol2bus.pkt_count_system.cpu.dcache.mem_side::system.l2.cpu_side     37501429                       # Packet count per connected master and slave (bytes)
system.tol2bus.pkt_count::total              37502814                       # Packet count per connected master and slave (bytes)
system.tol2bus.pkt_size_system.cpu.icache.mem_side::system.l2.cpu_side        45312                       # Cumulative packet size per connected master and slave (bytes)
system.tol2bus.pkt_size_system.cpu.dcache.mem_side::system.l2.cpu_side    934375680                       # Cumulative packet size per connected master and slave (bytes)
system.tol2bus.pkt_size::total              934420992                       # Cumulative packet size per connected master and slave (bytes)
system.tol2bus.snoops                         7871815                       # Total snoops (count)
system.tol2bus.snoop_fanout::samples         20373310                       # Request fanout histogram
system.tol2bus.snoop_fanout::mean            0.003356                       # Request fanout histogram
system.tol2bus.snoop_fanout::stdev           0.057837                       # Request fanout histogram
system.tol2bus.snoop_fanout::underflows             0      0.00%      0.00% # Request fanout histogram
system.tol2bus.snoop_fanout::0               20304930     99.66%     99.66% # Request fanout histogram
system.tol2bus.snoop_fanout::1                  68380      0.34%    100.00% # Request fanout histogram
system.tol2bus.snoop_fanout::2                      0      0.00%    100.00% # Request fanout histogram
system.tol2bus.snoop_fanout::3                      0      0.00%    100.00% # Request fanout histogram
system.tol2bus.snoop_fanout::4                      0      0.00%    100.00% # Request fanout histogram
system.tol2bus.snoop_fanout::overflows              0      0.00%    100.00% # Request fanout histogram
system.tol2bus.snoop_fanout::min_value              0                       # Request fanout histogram
system.tol2bus.snoop_fanout::max_value              1                       # Request fanout histogram
system.tol2bus.snoop_fanout::total           20373310                       # Request fanout histogram
system.tol2bus.reqLayer0.occupancy        14599493000                       # Layer occupancy (ticks)
system.tol2bus.reqLayer0.utilization              0.8                       # Layer utilization (%)
system.tol2bus.respLayer0.occupancy           1015500                       # Layer occupancy (ticks)
system.tol2bus.respLayer0.utilization             0.0                       # Layer utilization (%)
system.tol2bus.respLayer1.occupancy       18751227000                       # Layer occupancy (ticks)
system.tol2bus.respLayer1.utilization             1.1                       # Layer utilization (%)

---------- End Simulation Statistics   ----------
