
---------- Begin Simulation Statistics ----------
sim_seconds                                  1.060298                       # Number of seconds simulated
sim_ticks                                1060298131500                       # Number of ticks simulated
final_tick                               1060298131500                       # Number of ticks from beginning of simulation (restored from checkpoints and never reset)
sim_freq                                 1000000000000                       # Frequency of simulated ticks
host_inst_rate                                  35319                       # Simulator instruction rate (inst/s)
host_op_rate                                    51598                       # Simulator op (including micro ops) rate (op/s)
host_tick_rate                               74898219                       # Simulator tick rate (ticks/s)
host_mem_usage                                 828416                       # Number of bytes of host memory used
host_seconds                                 14156.52                       # Real time elapsed on the host
sim_insts                                   500000000                       # Number of instructions simulated
sim_ops                                     730450481                       # Number of ops (including micro ops) simulated
system.voltage_domain.voltage                       1                       # Voltage in Volts
system.clk_domain.clock                          1000                       # Clock period in ticks
system.mem_ctrls.bytes_read::cpu.inst           64000                       # Number of bytes read from this memory
system.mem_ctrls.bytes_read::cpu.data        47837888                       # Number of bytes read from this memory
system.mem_ctrls.bytes_read::total           47901888                       # Number of bytes read from this memory
system.mem_ctrls.bytes_inst_read::cpu.inst        64000                       # Number of instructions bytes read from this memory
system.mem_ctrls.bytes_inst_read::total         64000                       # Number of instructions bytes read from this memory
system.mem_ctrls.bytes_written::writebacks     24836224                       # Number of bytes written to this memory
system.mem_ctrls.bytes_written::total        24836224                       # Number of bytes written to this memory
system.mem_ctrls.num_reads::cpu.inst             1000                       # Number of read requests responded to by this memory
system.mem_ctrls.num_reads::cpu.data           747467                       # Number of read requests responded to by this memory
system.mem_ctrls.num_reads::total              748467                       # Number of read requests responded to by this memory
system.mem_ctrls.num_writes::writebacks        388066                       # Number of write requests responded to by this memory
system.mem_ctrls.num_writes::total             388066                       # Number of write requests responded to by this memory
system.mem_ctrls.bw_read::cpu.inst              60360                       # Total read bandwidth from this memory (bytes/s)
system.mem_ctrls.bw_read::cpu.data           45117393                       # Total read bandwidth from this memory (bytes/s)
system.mem_ctrls.bw_read::total              45177754                       # Total read bandwidth from this memory (bytes/s)
system.mem_ctrls.bw_inst_read::cpu.inst         60360                       # Instruction read bandwidth from this memory (bytes/s)
system.mem_ctrls.bw_inst_read::total            60360                       # Instruction read bandwidth from this memory (bytes/s)
system.mem_ctrls.bw_write::writebacks        23423812                       # Write bandwidth from this memory (bytes/s)
system.mem_ctrls.bw_write::total             23423812                       # Write bandwidth from this memory (bytes/s)
system.mem_ctrls.bw_total::writebacks        23423812                       # Total bandwidth to/from this memory (bytes/s)
system.mem_ctrls.bw_total::cpu.inst             60360                       # Total bandwidth to/from this memory (bytes/s)
system.mem_ctrls.bw_total::cpu.data          45117393                       # Total bandwidth to/from this memory (bytes/s)
system.mem_ctrls.bw_total::total             68601566                       # Total bandwidth to/from this memory (bytes/s)
system.mem_ctrls.readReqs                      748467                       # Number of read requests accepted
system.mem_ctrls.writeReqs                     388066                       # Number of write requests accepted
system.mem_ctrls.readBursts                    748467                       # Number of DRAM read bursts, including those serviced by the write queue
system.mem_ctrls.writeBursts                   388066                       # Number of DRAM write bursts, including those merged in the write queue
system.mem_ctrls.bytesReadDRAM               47812864                       # Total number of bytes read from DRAM
system.mem_ctrls.bytesReadWrQ                   89024                       # Total number of bytes read from write queue
system.mem_ctrls.bytesWritten                24834496                       # Total number of bytes written to DRAM
system.mem_ctrls.bytesReadSys                47901888                       # Total read bytes from the system interface side
system.mem_ctrls.bytesWrittenSys             24836224                       # Total written bytes from the system interface side
system.mem_ctrls.servicedByWrQ                   1391                       # Number of DRAM read bursts serviced by the write queue
system.mem_ctrls.mergedWrBursts                    11                       # Number of DRAM write bursts merged with an existing one
system.mem_ctrls.neitherReadNorWriteReqs       343098                       # Number of requests that are neither read nor write
system.mem_ctrls.perBankRdBursts::0             48776                       # Per bank write bursts
system.mem_ctrls.perBankRdBursts::1             47365                       # Per bank write bursts
system.mem_ctrls.perBankRdBursts::2             47563                       # Per bank write bursts
system.mem_ctrls.perBankRdBursts::3             44991                       # Per bank write bursts
system.mem_ctrls.perBankRdBursts::4             44410                       # Per bank write bursts
system.mem_ctrls.perBankRdBursts::5             43984                       # Per bank write bursts
system.mem_ctrls.perBankRdBursts::6             45780                       # Per bank write bursts
system.mem_ctrls.perBankRdBursts::7             44962                       # Per bank write bursts
system.mem_ctrls.perBankRdBursts::8             42939                       # Per bank write bursts
system.mem_ctrls.perBankRdBursts::9             43307                       # Per bank write bursts
system.mem_ctrls.perBankRdBursts::10            47070                       # Per bank write bursts
system.mem_ctrls.perBankRdBursts::11            47499                       # Per bank write bursts
system.mem_ctrls.perBankRdBursts::12            49182                       # Per bank write bursts
system.mem_ctrls.perBankRdBursts::13            49181                       # Per bank write bursts
system.mem_ctrls.perBankRdBursts::14            49548                       # Per bank write bursts
system.mem_ctrls.perBankRdBursts::15            50519                       # Per bank write bursts
system.mem_ctrls.perBankWrBursts::0             25051                       # Per bank write bursts
system.mem_ctrls.perBankWrBursts::1             24624                       # Per bank write bursts
system.mem_ctrls.perBankWrBursts::2             25754                       # Per bank write bursts
system.mem_ctrls.perBankWrBursts::3             23872                       # Per bank write bursts
system.mem_ctrls.perBankWrBursts::4             23155                       # Per bank write bursts
system.mem_ctrls.perBankWrBursts::5             22662                       # Per bank write bursts
system.mem_ctrls.perBankWrBursts::6             23779                       # Per bank write bursts
system.mem_ctrls.perBankWrBursts::7             23743                       # Per bank write bursts
system.mem_ctrls.perBankWrBursts::8             22861                       # Per bank write bursts
system.mem_ctrls.perBankWrBursts::9             23016                       # Per bank write bursts
system.mem_ctrls.perBankWrBursts::10            24380                       # Per bank write bursts
system.mem_ctrls.perBankWrBursts::11            24169                       # Per bank write bursts
system.mem_ctrls.perBankWrBursts::12            24645                       # Per bank write bursts
system.mem_ctrls.perBankWrBursts::13            24979                       # Per bank write bursts
system.mem_ctrls.perBankWrBursts::14            25171                       # Per bank write bursts
system.mem_ctrls.perBankWrBursts::15            26178                       # Per bank write bursts
system.mem_ctrls.numRdRetry                         0                       # Number of times read queue was full causing retry
system.mem_ctrls.numWrRetry                         0                       # Number of times write queue was full causing retry
system.mem_ctrls.totGap                  1060265537500                       # Total gap between requests
system.mem_ctrls.readPktSize::0                     0                       # Read request sizes (log2)
system.mem_ctrls.readPktSize::1                     0                       # Read request sizes (log2)
system.mem_ctrls.readPktSize::2                     0                       # Read request sizes (log2)
system.mem_ctrls.readPktSize::3                     0                       # Read request sizes (log2)
system.mem_ctrls.readPktSize::4                     0                       # Read request sizes (log2)
system.mem_ctrls.readPktSize::5                     0                       # Read request sizes (log2)
system.mem_ctrls.readPktSize::6                748467                       # Read request sizes (log2)
system.mem_ctrls.writePktSize::0                    0                       # Write request sizes (log2)
system.mem_ctrls.writePktSize::1                    0                       # Write request sizes (log2)
system.mem_ctrls.writePktSize::2                    0                       # Write request sizes (log2)
system.mem_ctrls.writePktSize::3                    0                       # Write request sizes (log2)
system.mem_ctrls.writePktSize::4                    0                       # Write request sizes (log2)
system.mem_ctrls.writePktSize::5                    0                       # Write request sizes (log2)
system.mem_ctrls.writePktSize::6               388066                       # Write request sizes (log2)
system.mem_ctrls.rdQLenPdf::0                  738447                       # What read queue length does an incoming req see
system.mem_ctrls.rdQLenPdf::1                    8083                       # What read queue length does an incoming req see
system.mem_ctrls.rdQLenPdf::2                     428                       # What read queue length does an incoming req see
system.mem_ctrls.rdQLenPdf::3                     118                       # What read queue length does an incoming req see
system.mem_ctrls.rdQLenPdf::4                       0                       # What read queue length does an incoming req see
system.mem_ctrls.rdQLenPdf::5                       0                       # What read queue length does an incoming req see
system.mem_ctrls.rdQLenPdf::6                       0                       # What read queue length does an incoming req see
system.mem_ctrls.rdQLenPdf::7                       0                       # What read queue length does an incoming req see
system.mem_ctrls.rdQLenPdf::8                       0                       # What read queue length does an incoming req see
system.mem_ctrls.rdQLenPdf::9                       0                       # What read queue length does an incoming req see
system.mem_ctrls.rdQLenPdf::10                      0                       # What read queue length does an incoming req see
system.mem_ctrls.rdQLenPdf::11                      0                       # What read queue length does an incoming req see
system.mem_ctrls.rdQLenPdf::12                      0                       # What read queue length does an incoming req see
system.mem_ctrls.rdQLenPdf::13                      0                       # What read queue length does an incoming req see
system.mem_ctrls.rdQLenPdf::14                      0                       # What read queue length does an incoming req see
system.mem_ctrls.rdQLenPdf::15                      0                       # What read queue length does an incoming req see
system.mem_ctrls.rdQLenPdf::16                      0                       # What read queue length does an incoming req see
system.mem_ctrls.rdQLenPdf::17                      0                       # What read queue length does an incoming req see
system.mem_ctrls.rdQLenPdf::18                      0                       # What read queue length does an incoming req see
system.mem_ctrls.rdQLenPdf::19                      0                       # What read queue length does an incoming req see
system.mem_ctrls.rdQLenPdf::20                      0                       # What read queue length does an incoming req see
system.mem_ctrls.rdQLenPdf::21                      0                       # What read queue length does an incoming req see
system.mem_ctrls.rdQLenPdf::22                      0                       # What read queue length does an incoming req see
system.mem_ctrls.rdQLenPdf::23                      0                       # What read queue length does an incoming req see
system.mem_ctrls.rdQLenPdf::24                      0                       # What read queue length does an incoming req see
system.mem_ctrls.rdQLenPdf::25                      0                       # What read queue length does an incoming req see
system.mem_ctrls.rdQLenPdf::26                      0                       # What read queue length does an incoming req see
system.mem_ctrls.rdQLenPdf::27                      0                       # What read queue length does an incoming req see
system.mem_ctrls.rdQLenPdf::28                      0                       # What read queue length does an incoming req see
system.mem_ctrls.rdQLenPdf::29                      0                       # What read queue length does an incoming req see
system.mem_ctrls.rdQLenPdf::30                      0                       # What read queue length does an incoming req see
system.mem_ctrls.rdQLenPdf::31                      0                       # What read queue length does an incoming req see
system.mem_ctrls.wrQLenPdf::0                       1                       # What write queue length does an incoming req see
system.mem_ctrls.wrQLenPdf::1                       1                       # What write queue length does an incoming req see
system.mem_ctrls.wrQLenPdf::2                       1                       # What write queue length does an incoming req see
system.mem_ctrls.wrQLenPdf::3                       1                       # What write queue length does an incoming req see
system.mem_ctrls.wrQLenPdf::4                       1                       # What write queue length does an incoming req see
system.mem_ctrls.wrQLenPdf::5                       1                       # What write queue length does an incoming req see
system.mem_ctrls.wrQLenPdf::6                       1                       # What write queue length does an incoming req see
system.mem_ctrls.wrQLenPdf::7                       1                       # What write queue length does an incoming req see
system.mem_ctrls.wrQLenPdf::8                       1                       # What write queue length does an incoming req see
system.mem_ctrls.wrQLenPdf::9                       1                       # What write queue length does an incoming req see
system.mem_ctrls.wrQLenPdf::10                      1                       # What write queue length does an incoming req see
system.mem_ctrls.wrQLenPdf::11                      1                       # What write queue length does an incoming req see
system.mem_ctrls.wrQLenPdf::12                      1                       # What write queue length does an incoming req see
system.mem_ctrls.wrQLenPdf::13                      1                       # What write queue length does an incoming req see
system.mem_ctrls.wrQLenPdf::14                      1                       # What write queue length does an incoming req see
system.mem_ctrls.wrQLenPdf::15                  14822                       # What write queue length does an incoming req see
system.mem_ctrls.wrQLenPdf::16                  15606                       # What write queue length does an incoming req see
system.mem_ctrls.wrQLenPdf::17                  22305                       # What write queue length does an incoming req see
system.mem_ctrls.wrQLenPdf::18                  22359                       # What write queue length does an incoming req see
system.mem_ctrls.wrQLenPdf::19                  22346                       # What write queue length does an incoming req see
system.mem_ctrls.wrQLenPdf::20                  22342                       # What write queue length does an incoming req see
system.mem_ctrls.wrQLenPdf::21                  22329                       # What write queue length does an incoming req see
system.mem_ctrls.wrQLenPdf::22                  22331                       # What write queue length does an incoming req see
system.mem_ctrls.wrQLenPdf::23                  22334                       # What write queue length does an incoming req see
system.mem_ctrls.wrQLenPdf::24                  22328                       # What write queue length does an incoming req see
system.mem_ctrls.wrQLenPdf::25                  22340                       # What write queue length does an incoming req see
system.mem_ctrls.wrQLenPdf::26                  22345                       # What write queue length does an incoming req see
system.mem_ctrls.wrQLenPdf::27                  22425                       # What write queue length does an incoming req see
system.mem_ctrls.wrQLenPdf::28                  22507                       # What write queue length does an incoming req see
system.mem_ctrls.wrQLenPdf::29                  22336                       # What write queue length does an incoming req see
system.mem_ctrls.wrQLenPdf::30                  22328                       # What write queue length does an incoming req see
system.mem_ctrls.wrQLenPdf::31                  22326                       # What write queue length does an incoming req see
system.mem_ctrls.wrQLenPdf::32                  22326                       # What write queue length does an incoming req see
system.mem_ctrls.wrQLenPdf::33                      5                       # What write queue length does an incoming req see
system.mem_ctrls.wrQLenPdf::34                      0                       # What write queue length does an incoming req see
system.mem_ctrls.wrQLenPdf::35                      0                       # What write queue length does an incoming req see
system.mem_ctrls.wrQLenPdf::36                      0                       # What write queue length does an incoming req see
system.mem_ctrls.wrQLenPdf::37                      0                       # What write queue length does an incoming req see
system.mem_ctrls.wrQLenPdf::38                      0                       # What write queue length does an incoming req see
system.mem_ctrls.wrQLenPdf::39                      0                       # What write queue length does an incoming req see
system.mem_ctrls.wrQLenPdf::40                      0                       # What write queue length does an incoming req see
system.mem_ctrls.wrQLenPdf::41                      0                       # What write queue length does an incoming req see
system.mem_ctrls.wrQLenPdf::42                      0                       # What write queue length does an incoming req see
system.mem_ctrls.wrQLenPdf::43                      0                       # What write queue length does an incoming req see
system.mem_ctrls.wrQLenPdf::44                      0                       # What write queue length does an incoming req see
system.mem_ctrls.wrQLenPdf::45                      0                       # What write queue length does an incoming req see
system.mem_ctrls.wrQLenPdf::46                      0                       # What write queue length does an incoming req see
system.mem_ctrls.wrQLenPdf::47                      0                       # What write queue length does an incoming req see
system.mem_ctrls.wrQLenPdf::48                      0                       # What write queue length does an incoming req see
system.mem_ctrls.wrQLenPdf::49                      0                       # What write queue length does an incoming req see
system.mem_ctrls.wrQLenPdf::50                      0                       # What write queue length does an incoming req see
system.mem_ctrls.wrQLenPdf::51                      0                       # What write queue length does an incoming req see
system.mem_ctrls.wrQLenPdf::52                      0                       # What write queue length does an incoming req see
system.mem_ctrls.wrQLenPdf::53                      0                       # What write queue length does an incoming req see
system.mem_ctrls.wrQLenPdf::54                      0                       # What write queue length does an incoming req see
system.mem_ctrls.wrQLenPdf::55                      0                       # What write queue length does an incoming req see
system.mem_ctrls.wrQLenPdf::56                      0                       # What write queue length does an incoming req see
system.mem_ctrls.wrQLenPdf::57                      0                       # What write queue length does an incoming req see
system.mem_ctrls.wrQLenPdf::58                      0                       # What write queue length does an incoming req see
system.mem_ctrls.wrQLenPdf::59                      0                       # What write queue length does an incoming req see
system.mem_ctrls.wrQLenPdf::60                      0                       # What write queue length does an incoming req see
system.mem_ctrls.wrQLenPdf::61                      0                       # What write queue length does an incoming req see
system.mem_ctrls.wrQLenPdf::62                      0                       # What write queue length does an incoming req see
system.mem_ctrls.wrQLenPdf::63                      0                       # What write queue length does an incoming req see
system.mem_ctrls.bytesPerActivate::samples       576013                       # Bytes accessed per row activation
system.mem_ctrls.bytesPerActivate::mean    126.121042                       # Bytes accessed per row activation
system.mem_ctrls.bytesPerActivate::gmean    92.376912                       # Bytes accessed per row activation
system.mem_ctrls.bytesPerActivate::stdev   156.078502                       # Bytes accessed per row activation
system.mem_ctrls.bytesPerActivate::0-127       397898     69.08%     69.08% # Bytes accessed per row activation
system.mem_ctrls.bytesPerActivate::128-255       116307     20.19%     89.27% # Bytes accessed per row activation
system.mem_ctrls.bytesPerActivate::256-383        25753      4.47%     93.74% # Bytes accessed per row activation
system.mem_ctrls.bytesPerActivate::384-511         9759      1.69%     95.43% # Bytes accessed per row activation
system.mem_ctrls.bytesPerActivate::512-639        12840      2.23%     97.66% # Bytes accessed per row activation
system.mem_ctrls.bytesPerActivate::640-767         2098      0.36%     98.03% # Bytes accessed per row activation
system.mem_ctrls.bytesPerActivate::768-895         1613      0.28%     98.31% # Bytes accessed per row activation
system.mem_ctrls.bytesPerActivate::896-1023         1506      0.26%     98.57% # Bytes accessed per row activation
system.mem_ctrls.bytesPerActivate::1024-1151         8239      1.43%    100.00% # Bytes accessed per row activation
system.mem_ctrls.bytesPerActivate::total       576013                       # Bytes accessed per row activation
system.mem_ctrls.rdPerTurnAround::samples        22326                       # Reads before turning the bus around for writes
system.mem_ctrls.rdPerTurnAround::mean      33.461749                       # Reads before turning the bus around for writes
system.mem_ctrls.rdPerTurnAround::gmean     25.520608                       # Reads before turning the bus around for writes
system.mem_ctrls.rdPerTurnAround::stdev    139.861260                       # Reads before turning the bus around for writes
system.mem_ctrls.rdPerTurnAround::0-511         22288     99.83%     99.83% # Reads before turning the bus around for writes
system.mem_ctrls.rdPerTurnAround::512-1023           30      0.13%     99.96% # Reads before turning the bus around for writes
system.mem_ctrls.rdPerTurnAround::1024-1535            1      0.00%     99.97% # Reads before turning the bus around for writes
system.mem_ctrls.rdPerTurnAround::1536-2047            1      0.00%     99.97% # Reads before turning the bus around for writes
system.mem_ctrls.rdPerTurnAround::5632-6143            1      0.00%     99.98% # Reads before turning the bus around for writes
system.mem_ctrls.rdPerTurnAround::7168-7679            2      0.01%     99.99% # Reads before turning the bus around for writes
system.mem_ctrls.rdPerTurnAround::7680-8191            1      0.00%     99.99% # Reads before turning the bus around for writes
system.mem_ctrls.rdPerTurnAround::8192-8703            1      0.00%    100.00% # Reads before turning the bus around for writes
system.mem_ctrls.rdPerTurnAround::11264-11775            1      0.00%    100.00% # Reads before turning the bus around for writes
system.mem_ctrls.rdPerTurnAround::total         22326                       # Reads before turning the bus around for writes
system.mem_ctrls.wrPerTurnAround::samples        22326                       # Writes before turning the bus around for reads
system.mem_ctrls.wrPerTurnAround::mean      17.380588                       # Writes before turning the bus around for reads
system.mem_ctrls.wrPerTurnAround::gmean     17.354825                       # Writes before turning the bus around for reads
system.mem_ctrls.wrPerTurnAround::stdev      0.933947                       # Writes before turning the bus around for reads
system.mem_ctrls.wrPerTurnAround::16             6718     30.09%     30.09% # Writes before turning the bus around for reads
system.mem_ctrls.wrPerTurnAround::17              778      3.48%     33.58% # Writes before turning the bus around for reads
system.mem_ctrls.wrPerTurnAround::18            14447     64.71%     98.28% # Writes before turning the bus around for reads
system.mem_ctrls.wrPerTurnAround::19              381      1.71%     99.99% # Writes before turning the bus around for reads
system.mem_ctrls.wrPerTurnAround::20                2      0.01%    100.00% # Writes before turning the bus around for reads
system.mem_ctrls.wrPerTurnAround::total         22326                       # Writes before turning the bus around for reads
system.mem_ctrls.totQLat                  10969944250                       # Total ticks spent queuing
system.mem_ctrls.totMemAccLat             24977619250                       # Total ticks spent from burst creation until serviced by the DRAM
system.mem_ctrls.totBusLat                 3735380000                       # Total ticks spent in databus transfers
system.mem_ctrls.avgQLat                     14683.84                       # Average queueing delay per DRAM burst
system.mem_ctrls.avgBusLat                    5000.00                       # Average bus latency per DRAM burst
system.mem_ctrls.avgMemAccLat                33433.84                       # Average memory access latency per DRAM burst
system.mem_ctrls.avgRdBW                        45.09                       # Average DRAM read bandwidth in MiByte/s
system.mem_ctrls.avgWrBW                        23.42                       # Average achieved write bandwidth in MiByte/s
system.mem_ctrls.avgRdBWSys                     45.18                       # Average system read bandwidth in MiByte/s
system.mem_ctrls.avgWrBWSys                     23.42                       # Average system write bandwidth in MiByte/s
system.mem_ctrls.peakBW                      12800.00                       # Theoretical peak bandwidth in MiByte/s
system.mem_ctrls.busUtil                         0.54                       # Data bus utilization in percentage
system.mem_ctrls.busUtilRead                     0.35                       # Data bus utilization in percentage for reads
system.mem_ctrls.busUtilWrite                    0.18                       # Data bus utilization in percentage for writes
system.mem_ctrls.avgRdQLen                       1.00                       # Average read queue length when enqueuing
system.mem_ctrls.avgWrQLen                      25.16                       # Average write queue length when enqueuing
system.mem_ctrls.readRowHits                   355201                       # Number of row buffer hits during reads
system.mem_ctrls.writeRowHits                  203901                       # Number of row buffer hits during writes
system.mem_ctrls.readRowHitRate                 47.55                       # Row buffer hit rate for reads
system.mem_ctrls.writeRowHitRate                52.54                       # Row buffer hit rate for writes
system.mem_ctrls.avgGap                     932894.63                       # Average gap between requests
system.mem_ctrls.pageHitRate                    49.25                       # Row buffer hit rate, read and write combined
system.mem_ctrls_0.actEnergy               2142798840                       # Energy for activate commands per rank (pJ)
system.mem_ctrls_0.preEnergy               1169185875                       # Energy for precharge commands per rank (pJ)
system.mem_ctrls_0.readEnergy              2869081800                       # Energy for read commands per rank (pJ)
system.mem_ctrls_0.writeEnergy             1248307200                       # Energy for write commands per rank (pJ)
system.mem_ctrls_0.refreshEnergy          69253158000                       # Energy for refresh commands per rank (pJ)
system.mem_ctrls_0.actBackEnergy         225668790630                       # Energy for active background per rank (pJ)
system.mem_ctrls_0.preBackEnergy         438220624500                       # Energy for precharge background per rank (pJ)
system.mem_ctrls_0.totalEnergy           740571946845                       # Total energy per rank (pJ)
system.mem_ctrls_0.averagePower            698.459821                       # Core power per rank (mW)
system.mem_ctrls_0.memoryStateTime::IDLE 727661408500                       # Time in different power states
system.mem_ctrls_0.memoryStateTime::REF   35405500000                       # Time in different power states
system.mem_ctrls_0.memoryStateTime::PRE_PDN            0                       # Time in different power states
system.mem_ctrls_0.memoryStateTime::ACT  297225945250                       # Time in different power states
system.mem_ctrls_0.memoryStateTime::ACT_PDN            0                       # Time in different power states
system.mem_ctrls_1.actEnergy               2211859440                       # Energy for activate commands per rank (pJ)
system.mem_ctrls_1.preEnergy               1206867750                       # Energy for precharge commands per rank (pJ)
system.mem_ctrls_1.readEnergy              2958111000                       # Energy for read commands per rank (pJ)
system.mem_ctrls_1.writeEnergy             1266185520                       # Energy for write commands per rank (pJ)
system.mem_ctrls_1.refreshEnergy          69253158000                       # Energy for refresh commands per rank (pJ)
system.mem_ctrls_1.actBackEnergy         228150924030                       # Energy for active background per rank (pJ)
system.mem_ctrls_1.preBackEnergy         436043314500                       # Energy for precharge background per rank (pJ)
system.mem_ctrls_1.totalEnergy           741090420240                       # Total energy per rank (pJ)
system.mem_ctrls_1.averagePower            698.948811                       # Core power per rank (mW)
system.mem_ctrls_1.memoryStateTime::IDLE 724010978250                       # Time in different power states
system.mem_ctrls_1.memoryStateTime::REF   35405500000                       # Time in different power states
system.mem_ctrls_1.memoryStateTime::PRE_PDN            0                       # Time in different power states
system.mem_ctrls_1.memoryStateTime::ACT  300876375500                       # Time in different power states
system.mem_ctrls_1.memoryStateTime::ACT_PDN            0                       # Time in different power states
system.cpu_voltage_domain.voltage                   1                       # Voltage in Volts
system.cpu_clk_domain.clock                       500                       # Clock period in ticks
system.cpu.apic_clk_domain.clock                 8000                       # Clock period in ticks
system.cpu.workload.num_syscalls                   86                       # Number of system calls
system.cpu.numCycles                       2120596263                       # number of cpu cycles simulated
system.cpu.numWorkItemsStarted                      0                       # number of work items this cpu started
system.cpu.numWorkItemsCompleted                    0                       # number of work items this cpu completed
system.cpu.committedInsts                   500000000                       # Number of instructions committed
system.cpu.committedOps                     730450481                       # Number of ops (including micro ops) committed
system.cpu.num_int_alu_accesses             729688887                       # Number of integer alu accesses
system.cpu.num_fp_alu_accesses                    761                       # Number of float alu accesses
system.cpu.num_func_calls                     1453959                       # number of times a function call or return occured
system.cpu.num_conditional_control_insts     31770494                       # number of instructions that are conditional controls
system.cpu.num_int_insts                    729688887                       # number of integer instructions
system.cpu.num_fp_insts                           761                       # number of float instructions
system.cpu.num_int_register_reads          1698743312                       # number of times the integer registers were read
system.cpu.num_int_register_writes          621892930                       # number of times the integer registers were written
system.cpu.num_fp_register_reads                 1183                       # number of times the floating registers were read
system.cpu.num_fp_register_writes                 497                       # number of times the floating registers were written
system.cpu.num_cc_register_reads            180840590                       # number of times the CC registers were read
system.cpu.num_cc_register_writes           276245123                       # number of times the CC registers were written
system.cpu.num_mem_refs                     295985437                       # number of memory refs
system.cpu.num_load_insts                   225946734                       # Number of load instructions
system.cpu.num_store_insts                   70038703                       # Number of store instructions
system.cpu.num_idle_cycles                          0                       # Number of idle cycles
system.cpu.num_busy_cycles                 2120596263                       # Number of busy cycles
system.cpu.not_idle_fraction                        1                       # Percentage of non-idle cycles
system.cpu.idle_fraction                            0                       # Percentage of idle cycles
system.cpu.Branches                          37843290                       # Number of branches fetched
system.cpu.op_class::No_OpClass                 94739      0.01%      0.01% # Class of executed instruction
system.cpu.op_class::IntAlu                 434349056     59.46%     59.48% # Class of executed instruction
system.cpu.op_class::IntMult                    20662      0.00%     59.48% # Class of executed instruction
system.cpu.op_class::IntDiv                       119      0.00%     59.48% # Class of executed instruction
system.cpu.op_class::FloatAdd                     468      0.00%     59.48% # Class of executed instruction
system.cpu.op_class::FloatCmp                       0      0.00%     59.48% # Class of executed instruction
system.cpu.op_class::FloatCvt                       0      0.00%     59.48% # Class of executed instruction
system.cpu.op_class::FloatMult                      0      0.00%     59.48% # Class of executed instruction
system.cpu.op_class::FloatDiv                       0      0.00%     59.48% # Class of executed instruction
system.cpu.op_class::FloatSqrt                      0      0.00%     59.48% # Class of executed instruction
system.cpu.op_class::SimdAdd                        0      0.00%     59.48% # Class of executed instruction
system.cpu.op_class::SimdAddAcc                     0      0.00%     59.48% # Class of executed instruction
system.cpu.op_class::SimdAlu                        0      0.00%     59.48% # Class of executed instruction
system.cpu.op_class::SimdCmp                        0      0.00%     59.48% # Class of executed instruction
system.cpu.op_class::SimdCvt                        0      0.00%     59.48% # Class of executed instruction
system.cpu.op_class::SimdMisc                       0      0.00%     59.48% # Class of executed instruction
system.cpu.op_class::SimdMult                       0      0.00%     59.48% # Class of executed instruction
system.cpu.op_class::SimdMultAcc                    0      0.00%     59.48% # Class of executed instruction
system.cpu.op_class::SimdShift                      0      0.00%     59.48% # Class of executed instruction
system.cpu.op_class::SimdShiftAcc                   0      0.00%     59.48% # Class of executed instruction
system.cpu.op_class::SimdSqrt                       0      0.00%     59.48% # Class of executed instruction
system.cpu.op_class::SimdFloatAdd                   0      0.00%     59.48% # Class of executed instruction
system.cpu.op_class::SimdFloatAlu                   0      0.00%     59.48% # Class of executed instruction
system.cpu.op_class::SimdFloatCmp                   0      0.00%     59.48% # Class of executed instruction
system.cpu.op_class::SimdFloatCvt                   0      0.00%     59.48% # Class of executed instruction
system.cpu.op_class::SimdFloatDiv                   0      0.00%     59.48% # Class of executed instruction
system.cpu.op_class::SimdFloatMisc                  0      0.00%     59.48% # Class of executed instruction
system.cpu.op_class::SimdFloatMult                  0      0.00%     59.48% # Class of executed instruction
system.cpu.op_class::SimdFloatMultAcc               0      0.00%     59.48% # Class of executed instruction
system.cpu.op_class::SimdFloatSqrt                  0      0.00%     59.48% # Class of executed instruction
system.cpu.op_class::MemRead                225946734     30.93%     90.41% # Class of executed instruction
system.cpu.op_class::MemWrite                70038703      9.59%    100.00% # Class of executed instruction
system.cpu.op_class::IprAccess                      0      0.00%    100.00% # Class of executed instruction
system.cpu.op_class::InstPrefetch                   0      0.00%    100.00% # Class of executed instruction
system.cpu.op_class::total                  730450481                       # Class of executed instruction
system.cpu.dcache.tags.replacements           1964908                       # number of replacements
system.cpu.dcache.tags.tagsinuse          2042.204306                       # Cycle average of tags in use
system.cpu.dcache.tags.total_refs           294018489                       # Total number of references to valid blocks.
system.cpu.dcache.tags.sampled_refs           1966956                       # Sample count of references to valid blocks.
system.cpu.dcache.tags.avg_refs            149.478935                       # Average number of references to valid blocks.
system.cpu.dcache.tags.warmup_cycle        3524722500                       # Cycle when the warmup percentage was hit.
system.cpu.dcache.tags.occ_blocks::cpu.data  2042.204306                       # Average occupied blocks per requestor
system.cpu.dcache.tags.occ_percent::cpu.data     0.997170                       # Average percentage of cache occupancy
system.cpu.dcache.tags.occ_percent::total     0.997170                       # Average percentage of cache occupancy
system.cpu.dcache.tags.occ_task_id_blocks::1024         2048                       # Occupied blocks per task id
system.cpu.dcache.tags.age_task_id_blocks_1024::1            2                       # Occupied blocks per task id
system.cpu.dcache.tags.age_task_id_blocks_1024::2           16                       # Occupied blocks per task id
system.cpu.dcache.tags.age_task_id_blocks_1024::3         1558                       # Occupied blocks per task id
system.cpu.dcache.tags.age_task_id_blocks_1024::4          472                       # Occupied blocks per task id
system.cpu.dcache.tags.occ_task_id_percent::1024            1                       # Percentage of cache occupancy per task id
system.cpu.dcache.tags.tag_accesses        1185908736                       # Number of tag accesses
system.cpu.dcache.tags.data_accesses       1185908736                       # Number of data accesses
system.cpu.dcache.ReadReq_hits::cpu.data    224555832                       # number of ReadReq hits
system.cpu.dcache.ReadReq_hits::total       224555832                       # number of ReadReq hits
system.cpu.dcache.WriteReq_hits::cpu.data     69462657                       # number of WriteReq hits
system.cpu.dcache.WriteReq_hits::total       69462657                       # number of WriteReq hits
system.cpu.dcache.demand_hits::cpu.data     294018489                       # number of demand (read+write) hits
system.cpu.dcache.demand_hits::total        294018489                       # number of demand (read+write) hits
system.cpu.dcache.overall_hits::cpu.data    294018489                       # number of overall hits
system.cpu.dcache.overall_hits::total       294018489                       # number of overall hits
system.cpu.dcache.ReadReq_misses::cpu.data      1374526                       # number of ReadReq misses
system.cpu.dcache.ReadReq_misses::total       1374526                       # number of ReadReq misses
system.cpu.dcache.WriteReq_misses::cpu.data       576046                       # number of WriteReq misses
system.cpu.dcache.WriteReq_misses::total       576046                       # number of WriteReq misses
system.cpu.dcache.SoftPFReq_misses::cpu.data        16384                       # number of SoftPFReq misses
system.cpu.dcache.SoftPFReq_misses::total        16384                       # number of SoftPFReq misses
system.cpu.dcache.demand_misses::cpu.data      1950572                       # number of demand (read+write) misses
system.cpu.dcache.demand_misses::total        1950572                       # number of demand (read+write) misses
system.cpu.dcache.overall_misses::cpu.data      1966956                       # number of overall misses
system.cpu.dcache.overall_misses::total       1966956                       # number of overall misses
system.cpu.dcache.ReadReq_miss_latency::cpu.data  48163034000                       # number of ReadReq miss cycles
system.cpu.dcache.ReadReq_miss_latency::total  48163034000                       # number of ReadReq miss cycles
system.cpu.dcache.WriteReq_miss_latency::cpu.data  30516767500                       # number of WriteReq miss cycles
system.cpu.dcache.WriteReq_miss_latency::total  30516767500                       # number of WriteReq miss cycles
system.cpu.dcache.demand_miss_latency::cpu.data  78679801500                       # number of demand (read+write) miss cycles
system.cpu.dcache.demand_miss_latency::total  78679801500                       # number of demand (read+write) miss cycles
system.cpu.dcache.overall_miss_latency::cpu.data  78679801500                       # number of overall miss cycles
system.cpu.dcache.overall_miss_latency::total  78679801500                       # number of overall miss cycles
system.cpu.dcache.ReadReq_accesses::cpu.data    225930358                       # number of ReadReq accesses(hits+misses)
system.cpu.dcache.ReadReq_accesses::total    225930358                       # number of ReadReq accesses(hits+misses)
system.cpu.dcache.WriteReq_accesses::cpu.data     70038703                       # number of WriteReq accesses(hits+misses)
system.cpu.dcache.WriteReq_accesses::total     70038703                       # number of WriteReq accesses(hits+misses)
system.cpu.dcache.SoftPFReq_accesses::cpu.data        16384                       # number of SoftPFReq accesses(hits+misses)
system.cpu.dcache.SoftPFReq_accesses::total        16384                       # number of SoftPFReq accesses(hits+misses)
system.cpu.dcache.demand_accesses::cpu.data    295969061                       # number of demand (read+write) accesses
system.cpu.dcache.demand_accesses::total    295969061                       # number of demand (read+write) accesses
system.cpu.dcache.overall_accesses::cpu.data    295985445                       # number of overall (read+write) accesses
system.cpu.dcache.overall_accesses::total    295985445                       # number of overall (read+write) accesses
system.cpu.dcache.ReadReq_miss_rate::cpu.data     0.006084                       # miss rate for ReadReq accesses
system.cpu.dcache.ReadReq_miss_rate::total     0.006084                       # miss rate for ReadReq accesses
system.cpu.dcache.WriteReq_miss_rate::cpu.data     0.008225                       # miss rate for WriteReq accesses
system.cpu.dcache.WriteReq_miss_rate::total     0.008225                       # miss rate for WriteReq accesses
system.cpu.dcache.SoftPFReq_miss_rate::cpu.data            1                       # miss rate for SoftPFReq accesses
system.cpu.dcache.SoftPFReq_miss_rate::total            1                       # miss rate for SoftPFReq accesses
system.cpu.dcache.demand_miss_rate::cpu.data     0.006590                       # miss rate for demand accesses
system.cpu.dcache.demand_miss_rate::total     0.006590                       # miss rate for demand accesses
system.cpu.dcache.overall_miss_rate::cpu.data     0.006645                       # miss rate for overall accesses
system.cpu.dcache.overall_miss_rate::total     0.006645                       # miss rate for overall accesses
system.cpu.dcache.ReadReq_avg_miss_latency::cpu.data 35039.740245                       # average ReadReq miss latency
system.cpu.dcache.ReadReq_avg_miss_latency::total 35039.740245                       # average ReadReq miss latency
system.cpu.dcache.WriteReq_avg_miss_latency::cpu.data 52976.268388                       # average WriteReq miss latency
system.cpu.dcache.WriteReq_avg_miss_latency::total 52976.268388                       # average WriteReq miss latency
system.cpu.dcache.demand_avg_miss_latency::cpu.data 40336.784031                       # average overall miss latency
system.cpu.dcache.demand_avg_miss_latency::total 40336.784031                       # average overall miss latency
system.cpu.dcache.overall_avg_miss_latency::cpu.data 40000.793866                       # average overall miss latency
system.cpu.dcache.overall_avg_miss_latency::total 40000.793866                       # average overall miss latency
system.cpu.dcache.blocked_cycles::no_mshrs       231785                       # number of cycles access was blocked
system.cpu.dcache.blocked_cycles::no_targets            0                       # number of cycles access was blocked
system.cpu.dcache.blocked::no_mshrs              5386                       # number of cycles access was blocked
system.cpu.dcache.blocked::no_targets               0                       # number of cycles access was blocked
system.cpu.dcache.avg_blocked_cycles::no_mshrs    43.034720                       # average number of cycles each access was blocked
system.cpu.dcache.avg_blocked_cycles::no_targets          nan                       # average number of cycles each access was blocked
system.cpu.dcache.fast_writes                       0                       # number of fast writes performed
system.cpu.dcache.cache_copies                      0                       # number of cache copies performed
system.cpu.dcache.writebacks::writebacks       899353                       # number of writebacks
system.cpu.dcache.writebacks::total            899353                       # number of writebacks
system.cpu.dcache.ReadReq_mshr_misses::cpu.data      1374526                       # number of ReadReq MSHR misses
system.cpu.dcache.ReadReq_mshr_misses::total      1374526                       # number of ReadReq MSHR misses
system.cpu.dcache.WriteReq_mshr_misses::cpu.data       576046                       # number of WriteReq MSHR misses
system.cpu.dcache.WriteReq_mshr_misses::total       576046                       # number of WriteReq MSHR misses
system.cpu.dcache.SoftPFReq_mshr_misses::cpu.data        16384                       # number of SoftPFReq MSHR misses
system.cpu.dcache.SoftPFReq_mshr_misses::total        16384                       # number of SoftPFReq MSHR misses
system.cpu.dcache.demand_mshr_misses::cpu.data      1950572                       # number of demand (read+write) MSHR misses
system.cpu.dcache.demand_mshr_misses::total      1950572                       # number of demand (read+write) MSHR misses
system.cpu.dcache.overall_mshr_misses::cpu.data      1966956                       # number of overall MSHR misses
system.cpu.dcache.overall_mshr_misses::total      1966956                       # number of overall MSHR misses
system.cpu.dcache.ReadReq_mshr_miss_latency::cpu.data  46788508000                       # number of ReadReq MSHR miss cycles
system.cpu.dcache.ReadReq_mshr_miss_latency::total  46788508000                       # number of ReadReq MSHR miss cycles
system.cpu.dcache.WriteReq_mshr_miss_latency::cpu.data  29940721500                       # number of WriteReq MSHR miss cycles
system.cpu.dcache.WriteReq_mshr_miss_latency::total  29940721500                       # number of WriteReq MSHR miss cycles
system.cpu.dcache.SoftPFReq_mshr_miss_latency::cpu.data   1281212962                       # number of SoftPFReq MSHR miss cycles
system.cpu.dcache.SoftPFReq_mshr_miss_latency::total   1281212962                       # number of SoftPFReq MSHR miss cycles
system.cpu.dcache.demand_mshr_miss_latency::cpu.data  76729229500                       # number of demand (read+write) MSHR miss cycles
system.cpu.dcache.demand_mshr_miss_latency::total  76729229500                       # number of demand (read+write) MSHR miss cycles
system.cpu.dcache.overall_mshr_miss_latency::cpu.data  78010442462                       # number of overall MSHR miss cycles
system.cpu.dcache.overall_mshr_miss_latency::total  78010442462                       # number of overall MSHR miss cycles
system.cpu.dcache.ReadReq_mshr_miss_rate::cpu.data     0.006084                       # mshr miss rate for ReadReq accesses
system.cpu.dcache.ReadReq_mshr_miss_rate::total     0.006084                       # mshr miss rate for ReadReq accesses
system.cpu.dcache.WriteReq_mshr_miss_rate::cpu.data     0.008225                       # mshr miss rate for WriteReq accesses
system.cpu.dcache.WriteReq_mshr_miss_rate::total     0.008225                       # mshr miss rate for WriteReq accesses
system.cpu.dcache.SoftPFReq_mshr_miss_rate::cpu.data            1                       # mshr miss rate for SoftPFReq accesses
system.cpu.dcache.SoftPFReq_mshr_miss_rate::total            1                       # mshr miss rate for SoftPFReq accesses
system.cpu.dcache.demand_mshr_miss_rate::cpu.data     0.006590                       # mshr miss rate for demand accesses
system.cpu.dcache.demand_mshr_miss_rate::total     0.006590                       # mshr miss rate for demand accesses
system.cpu.dcache.overall_mshr_miss_rate::cpu.data     0.006645                       # mshr miss rate for overall accesses
system.cpu.dcache.overall_mshr_miss_rate::total     0.006645                       # mshr miss rate for overall accesses
system.cpu.dcache.ReadReq_avg_mshr_miss_latency::cpu.data 34039.740245                       # average ReadReq mshr miss latency
system.cpu.dcache.ReadReq_avg_mshr_miss_latency::total 34039.740245                       # average ReadReq mshr miss latency
system.cpu.dcache.WriteReq_avg_mshr_miss_latency::cpu.data 51976.268388                       # average WriteReq mshr miss latency
system.cpu.dcache.WriteReq_avg_mshr_miss_latency::total 51976.268388                       # average WriteReq mshr miss latency
system.cpu.dcache.SoftPFReq_avg_mshr_miss_latency::cpu.data 78199.033325                       # average SoftPFReq mshr miss latency
system.cpu.dcache.SoftPFReq_avg_mshr_miss_latency::total 78199.033325                       # average SoftPFReq mshr miss latency
system.cpu.dcache.demand_avg_mshr_miss_latency::cpu.data 39336.784031                       # average overall mshr miss latency
system.cpu.dcache.demand_avg_mshr_miss_latency::total 39336.784031                       # average overall mshr miss latency
system.cpu.dcache.overall_avg_mshr_miss_latency::cpu.data 39660.491878                       # average overall mshr miss latency
system.cpu.dcache.overall_avg_mshr_miss_latency::total 39660.491878                       # average overall mshr miss latency
system.cpu.dcache.no_allocate_misses                0                       # Number of misses that were no-allocate
system.cpu.dtb_walker_cache.tags.replacements            0                       # number of replacements
system.cpu.dtb_walker_cache.tags.tagsinuse            0                       # Cycle average of tags in use
system.cpu.dtb_walker_cache.tags.total_refs            0                       # Total number of references to valid blocks.
system.cpu.dtb_walker_cache.tags.sampled_refs            0                       # Sample count of references to valid blocks.
system.cpu.dtb_walker_cache.tags.avg_refs          nan                       # Average number of references to valid blocks.
system.cpu.dtb_walker_cache.tags.warmup_cycle            0                       # Cycle when the warmup percentage was hit.
system.cpu.dtb_walker_cache.tags.tag_accesses            0                       # Number of tag accesses
system.cpu.dtb_walker_cache.tags.data_accesses            0                       # Number of data accesses
system.cpu.dtb_walker_cache.blocked_cycles::no_mshrs            0                       # number of cycles access was blocked
system.cpu.dtb_walker_cache.blocked_cycles::no_targets            0                       # number of cycles access was blocked
system.cpu.dtb_walker_cache.blocked::no_mshrs            0                       # number of cycles access was blocked
system.cpu.dtb_walker_cache.blocked::no_targets            0                       # number of cycles access was blocked
system.cpu.dtb_walker_cache.avg_blocked_cycles::no_mshrs          nan                       # average number of cycles each access was blocked
system.cpu.dtb_walker_cache.avg_blocked_cycles::no_targets          nan                       # average number of cycles each access was blocked
system.cpu.dtb_walker_cache.fast_writes             0                       # number of fast writes performed
system.cpu.dtb_walker_cache.cache_copies            0                       # number of cache copies performed
system.cpu.dtb_walker_cache.no_allocate_misses            0                       # Number of misses that were no-allocate
system.cpu.icache.tags.replacements                45                       # number of replacements
system.cpu.icache.tags.tagsinuse           670.639055                       # Cycle average of tags in use
system.cpu.icache.tags.total_refs           687396859                       # Total number of references to valid blocks.
system.cpu.icache.tags.sampled_refs              1001                       # Sample count of references to valid blocks.
system.cpu.icache.tags.avg_refs          686710.148851                       # Average number of references to valid blocks.
system.cpu.icache.tags.warmup_cycle                 0                       # Cycle when the warmup percentage was hit.
system.cpu.icache.tags.occ_blocks::cpu.inst   670.639055                       # Average occupied blocks per requestor
system.cpu.icache.tags.occ_percent::cpu.inst     0.327460                       # Average percentage of cache occupancy
system.cpu.icache.tags.occ_percent::total     0.327460                       # Average percentage of cache occupancy
system.cpu.icache.tags.occ_task_id_blocks::1024          956                       # Occupied blocks per task id
system.cpu.icache.tags.age_task_id_blocks_1024::1            7                       # Occupied blocks per task id
system.cpu.icache.tags.age_task_id_blocks_1024::3           25                       # Occupied blocks per task id
system.cpu.icache.tags.age_task_id_blocks_1024::4          924                       # Occupied blocks per task id
system.cpu.icache.tags.occ_task_id_percent::1024     0.466797                       # Percentage of cache occupancy per task id
system.cpu.icache.tags.tag_accesses        1374796721                       # Number of tag accesses
system.cpu.icache.tags.data_accesses       1374796721                       # Number of data accesses
system.cpu.icache.ReadReq_hits::cpu.inst    687396859                       # number of ReadReq hits
system.cpu.icache.ReadReq_hits::total       687396859                       # number of ReadReq hits
system.cpu.icache.demand_hits::cpu.inst     687396859                       # number of demand (read+write) hits
system.cpu.icache.demand_hits::total        687396859                       # number of demand (read+write) hits
system.cpu.icache.overall_hits::cpu.inst    687396859                       # number of overall hits
system.cpu.icache.overall_hits::total       687396859                       # number of overall hits
system.cpu.icache.ReadReq_misses::cpu.inst         1001                       # number of ReadReq misses
system.cpu.icache.ReadReq_misses::total          1001                       # number of ReadReq misses
system.cpu.icache.demand_misses::cpu.inst         1001                       # number of demand (read+write) misses
system.cpu.icache.demand_misses::total           1001                       # number of demand (read+write) misses
system.cpu.icache.overall_misses::cpu.inst         1001                       # number of overall misses
system.cpu.icache.overall_misses::total          1001                       # number of overall misses
system.cpu.icache.ReadReq_miss_latency::cpu.inst     78495500                       # number of ReadReq miss cycles
system.cpu.icache.ReadReq_miss_latency::total     78495500                       # number of ReadReq miss cycles
system.cpu.icache.demand_miss_latency::cpu.inst     78495500                       # number of demand (read+write) miss cycles
system.cpu.icache.demand_miss_latency::total     78495500                       # number of demand (read+write) miss cycles
system.cpu.icache.overall_miss_latency::cpu.inst     78495500                       # number of overall miss cycles
system.cpu.icache.overall_miss_latency::total     78495500                       # number of overall miss cycles
system.cpu.icache.ReadReq_accesses::cpu.inst    687397860                       # number of ReadReq accesses(hits+misses)
system.cpu.icache.ReadReq_accesses::total    687397860                       # number of ReadReq accesses(hits+misses)
system.cpu.icache.demand_accesses::cpu.inst    687397860                       # number of demand (read+write) accesses
system.cpu.icache.demand_accesses::total    687397860                       # number of demand (read+write) accesses
system.cpu.icache.overall_accesses::cpu.inst    687397860                       # number of overall (read+write) accesses
system.cpu.icache.overall_accesses::total    687397860                       # number of overall (read+write) accesses
system.cpu.icache.ReadReq_miss_rate::cpu.inst     0.000001                       # miss rate for ReadReq accesses
system.cpu.icache.ReadReq_miss_rate::total     0.000001                       # miss rate for ReadReq accesses
system.cpu.icache.demand_miss_rate::cpu.inst     0.000001                       # miss rate for demand accesses
system.cpu.icache.demand_miss_rate::total     0.000001                       # miss rate for demand accesses
system.cpu.icache.overall_miss_rate::cpu.inst     0.000001                       # miss rate for overall accesses
system.cpu.icache.overall_miss_rate::total     0.000001                       # miss rate for overall accesses
system.cpu.icache.ReadReq_avg_miss_latency::cpu.inst 78417.082917                       # average ReadReq miss latency
system.cpu.icache.ReadReq_avg_miss_latency::total 78417.082917                       # average ReadReq miss latency
system.cpu.icache.demand_avg_miss_latency::cpu.inst 78417.082917                       # average overall miss latency
system.cpu.icache.demand_avg_miss_latency::total 78417.082917                       # average overall miss latency
system.cpu.icache.overall_avg_miss_latency::cpu.inst 78417.082917                       # average overall miss latency
system.cpu.icache.overall_avg_miss_latency::total 78417.082917                       # average overall miss latency
system.cpu.icache.blocked_cycles::no_mshrs            0                       # number of cycles access was blocked
system.cpu.icache.blocked_cycles::no_targets            0                       # number of cycles access was blocked
system.cpu.icache.blocked::no_mshrs                 0                       # number of cycles access was blocked
system.cpu.icache.blocked::no_targets               0                       # number of cycles access was blocked
system.cpu.icache.avg_blocked_cycles::no_mshrs          nan                       # average number of cycles each access was blocked
system.cpu.icache.avg_blocked_cycles::no_targets          nan                       # average number of cycles each access was blocked
system.cpu.icache.fast_writes                       0                       # number of fast writes performed
system.cpu.icache.cache_copies                      0                       # number of cache copies performed
system.cpu.icache.writebacks::writebacks           45                       # number of writebacks
system.cpu.icache.writebacks::total                45                       # number of writebacks
system.cpu.icache.ReadReq_mshr_misses::cpu.inst         1001                       # number of ReadReq MSHR misses
system.cpu.icache.ReadReq_mshr_misses::total         1001                       # number of ReadReq MSHR misses
system.cpu.icache.demand_mshr_misses::cpu.inst         1001                       # number of demand (read+write) MSHR misses
system.cpu.icache.demand_mshr_misses::total         1001                       # number of demand (read+write) MSHR misses
system.cpu.icache.overall_mshr_misses::cpu.inst         1001                       # number of overall MSHR misses
system.cpu.icache.overall_mshr_misses::total         1001                       # number of overall MSHR misses
system.cpu.icache.ReadReq_mshr_miss_latency::cpu.inst     77494500                       # number of ReadReq MSHR miss cycles
system.cpu.icache.ReadReq_mshr_miss_latency::total     77494500                       # number of ReadReq MSHR miss cycles
system.cpu.icache.demand_mshr_miss_latency::cpu.inst     77494500                       # number of demand (read+write) MSHR miss cycles
system.cpu.icache.demand_mshr_miss_latency::total     77494500                       # number of demand (read+write) MSHR miss cycles
system.cpu.icache.overall_mshr_miss_latency::cpu.inst     77494500                       # number of overall MSHR miss cycles
system.cpu.icache.overall_mshr_miss_latency::total     77494500                       # number of overall MSHR miss cycles
system.cpu.icache.ReadReq_mshr_miss_rate::cpu.inst     0.000001                       # mshr miss rate for ReadReq accesses
system.cpu.icache.ReadReq_mshr_miss_rate::total     0.000001                       # mshr miss rate for ReadReq accesses
system.cpu.icache.demand_mshr_miss_rate::cpu.inst     0.000001                       # mshr miss rate for demand accesses
system.cpu.icache.demand_mshr_miss_rate::total     0.000001                       # mshr miss rate for demand accesses
system.cpu.icache.overall_mshr_miss_rate::cpu.inst     0.000001                       # mshr miss rate for overall accesses
system.cpu.icache.overall_mshr_miss_rate::total     0.000001                       # mshr miss rate for overall accesses
system.cpu.icache.ReadReq_avg_mshr_miss_latency::cpu.inst 77417.082917                       # average ReadReq mshr miss latency
system.cpu.icache.ReadReq_avg_mshr_miss_latency::total 77417.082917                       # average ReadReq mshr miss latency
system.cpu.icache.demand_avg_mshr_miss_latency::cpu.inst 77417.082917                       # average overall mshr miss latency
system.cpu.icache.demand_avg_mshr_miss_latency::total 77417.082917                       # average overall mshr miss latency
system.cpu.icache.overall_avg_mshr_miss_latency::cpu.inst 77417.082917                       # average overall mshr miss latency
system.cpu.icache.overall_avg_mshr_miss_latency::total 77417.082917                       # average overall mshr miss latency
system.cpu.icache.no_allocate_misses                0                       # Number of misses that were no-allocate
system.cpu.itb_walker_cache.tags.replacements            0                       # number of replacements
system.cpu.itb_walker_cache.tags.tagsinuse            0                       # Cycle average of tags in use
system.cpu.itb_walker_cache.tags.total_refs            0                       # Total number of references to valid blocks.
system.cpu.itb_walker_cache.tags.sampled_refs            0                       # Sample count of references to valid blocks.
system.cpu.itb_walker_cache.tags.avg_refs          nan                       # Average number of references to valid blocks.
system.cpu.itb_walker_cache.tags.warmup_cycle            0                       # Cycle when the warmup percentage was hit.
system.cpu.itb_walker_cache.tags.tag_accesses            0                       # Number of tag accesses
system.cpu.itb_walker_cache.tags.data_accesses            0                       # Number of data accesses
system.cpu.itb_walker_cache.blocked_cycles::no_mshrs            0                       # number of cycles access was blocked
system.cpu.itb_walker_cache.blocked_cycles::no_targets            0                       # number of cycles access was blocked
system.cpu.itb_walker_cache.blocked::no_mshrs            0                       # number of cycles access was blocked
system.cpu.itb_walker_cache.blocked::no_targets            0                       # number of cycles access was blocked
system.cpu.itb_walker_cache.avg_blocked_cycles::no_mshrs          nan                       # average number of cycles each access was blocked
system.cpu.itb_walker_cache.avg_blocked_cycles::no_targets          nan                       # average number of cycles each access was blocked
system.cpu.itb_walker_cache.fast_writes             0                       # number of fast writes performed
system.cpu.itb_walker_cache.cache_copies            0                       # number of cache copies performed
system.cpu.itb_walker_cache.no_allocate_misses            0                       # Number of misses that were no-allocate
system.l2.tags.replacements                    751828                       # number of replacements
system.l2.tags.tagsinuse                 15639.623199                       # Cycle average of tags in use
system.l2.tags.total_refs                     2524986                       # Total number of references to valid blocks.
system.l2.tags.sampled_refs                    767735                       # Sample count of references to valid blocks.
system.l2.tags.avg_refs                      3.288877                       # Average number of references to valid blocks.
system.l2.tags.warmup_cycle              133205347500                       # Cycle when the warmup percentage was hit.
system.l2.tags.occ_blocks::writebacks     7477.977670                       # Average occupied blocks per requestor
system.l2.tags.occ_blocks::cpu.inst          3.943902                       # Average occupied blocks per requestor
system.l2.tags.occ_blocks::cpu.data       8157.701627                       # Average occupied blocks per requestor
system.l2.tags.occ_percent::writebacks       0.456420                       # Average percentage of cache occupancy
system.l2.tags.occ_percent::cpu.inst         0.000241                       # Average percentage of cache occupancy
system.l2.tags.occ_percent::cpu.data         0.497907                       # Average percentage of cache occupancy
system.l2.tags.occ_percent::total            0.954567                       # Average percentage of cache occupancy
system.l2.tags.occ_task_id_blocks::1024         15907                       # Occupied blocks per task id
system.l2.tags.age_task_id_blocks_1024::1            7                       # Occupied blocks per task id
system.l2.tags.age_task_id_blocks_1024::3           42                       # Occupied blocks per task id
system.l2.tags.age_task_id_blocks_1024::4        15858                       # Occupied blocks per task id
system.l2.tags.occ_task_id_percent::1024     0.970886                       # Percentage of cache occupancy per task id
system.l2.tags.tag_accesses                   5276690                       # Number of tag accesses
system.l2.tags.data_accesses                  5276690                       # Number of data accesses
system.l2.WritebackDirty_hits::writebacks       899353                       # number of WritebackDirty hits
system.l2.WritebackDirty_hits::total           899353                       # number of WritebackDirty hits
system.l2.WritebackClean_hits::writebacks           45                       # number of WritebackClean hits
system.l2.WritebackClean_hits::total               45                       # number of WritebackClean hits
system.l2.ReadExReq_hits::cpu.data             268218                       # number of ReadExReq hits
system.l2.ReadExReq_hits::total                268218                       # number of ReadExReq hits
system.l2.ReadCleanReq_hits::cpu.inst               1                       # number of ReadCleanReq hits
system.l2.ReadCleanReq_hits::total                  1                       # number of ReadCleanReq hits
system.l2.ReadSharedReq_hits::cpu.data         951271                       # number of ReadSharedReq hits
system.l2.ReadSharedReq_hits::total            951271                       # number of ReadSharedReq hits
system.l2.demand_hits::cpu.inst                     1                       # number of demand (read+write) hits
system.l2.demand_hits::cpu.data               1219489                       # number of demand (read+write) hits
system.l2.demand_hits::total                  1219490                       # number of demand (read+write) hits
system.l2.overall_hits::cpu.inst                    1                       # number of overall hits
system.l2.overall_hits::cpu.data              1219489                       # number of overall hits
system.l2.overall_hits::total                 1219490                       # number of overall hits
system.l2.ReadExReq_misses::cpu.data           307828                       # number of ReadExReq misses
system.l2.ReadExReq_misses::total              307828                       # number of ReadExReq misses
system.l2.ReadCleanReq_misses::cpu.inst          1000                       # number of ReadCleanReq misses
system.l2.ReadCleanReq_misses::total             1000                       # number of ReadCleanReq misses
system.l2.ReadSharedReq_misses::cpu.data       439639                       # number of ReadSharedReq misses
system.l2.ReadSharedReq_misses::total          439639                       # number of ReadSharedReq misses
system.l2.demand_misses::cpu.inst                1000                       # number of demand (read+write) misses
system.l2.demand_misses::cpu.data              747467                       # number of demand (read+write) misses
system.l2.demand_misses::total                 748467                       # number of demand (read+write) misses
system.l2.overall_misses::cpu.inst               1000                       # number of overall misses
system.l2.overall_misses::cpu.data             747467                       # number of overall misses
system.l2.overall_misses::total                748467                       # number of overall misses
system.l2.ReadExReq_miss_latency::cpu.data  26260362500                       # number of ReadExReq miss cycles
system.l2.ReadExReq_miss_latency::total   26260362500                       # number of ReadExReq miss cycles
system.l2.ReadCleanReq_miss_latency::cpu.inst     75981000                       # number of ReadCleanReq miss cycles
system.l2.ReadCleanReq_miss_latency::total     75981000                       # number of ReadCleanReq miss cycles
system.l2.ReadSharedReq_miss_latency::cpu.data  35994939500                       # number of ReadSharedReq miss cycles
system.l2.ReadSharedReq_miss_latency::total  35994939500                       # number of ReadSharedReq miss cycles
system.l2.demand_miss_latency::cpu.inst      75981000                       # number of demand (read+write) miss cycles
system.l2.demand_miss_latency::cpu.data   62255302000                       # number of demand (read+write) miss cycles
system.l2.demand_miss_latency::total      62331283000                       # number of demand (read+write) miss cycles
system.l2.overall_miss_latency::cpu.inst     75981000                       # number of overall miss cycles
system.l2.overall_miss_latency::cpu.data  62255302000                       # number of overall miss cycles
system.l2.overall_miss_latency::total     62331283000                       # number of overall miss cycles
system.l2.WritebackDirty_accesses::writebacks       899353                       # number of WritebackDirty accesses(hits+misses)
system.l2.WritebackDirty_accesses::total       899353                       # number of WritebackDirty accesses(hits+misses)
system.l2.WritebackClean_accesses::writebacks           45                       # number of WritebackClean accesses(hits+misses)
system.l2.WritebackClean_accesses::total           45                       # number of WritebackClean accesses(hits+misses)
system.l2.ReadExReq_accesses::cpu.data         576046                       # number of ReadExReq accesses(hits+misses)
system.l2.ReadExReq_accesses::total            576046                       # number of ReadExReq accesses(hits+misses)
system.l2.ReadCleanReq_accesses::cpu.inst         1001                       # number of ReadCleanReq accesses(hits+misses)
system.l2.ReadCleanReq_accesses::total           1001                       # number of ReadCleanReq accesses(hits+misses)
system.l2.ReadSharedReq_accesses::cpu.data      1390910                       # number of ReadSharedReq accesses(hits+misses)
system.l2.ReadSharedReq_accesses::total       1390910                       # number of ReadSharedReq accesses(hits+misses)
system.l2.demand_accesses::cpu.inst              1001                       # number of demand (read+write) accesses
system.l2.demand_accesses::cpu.data           1966956                       # number of demand (read+write) accesses
system.l2.demand_accesses::total              1967957                       # number of demand (read+write) accesses
system.l2.overall_accesses::cpu.inst             1001                       # number of overall (read+write) accesses
system.l2.overall_accesses::cpu.data          1966956                       # number of overall (read+write) accesses
system.l2.overall_accesses::total             1967957                       # number of overall (read+write) accesses
system.l2.ReadExReq_miss_rate::cpu.data      0.534381                       # miss rate for ReadExReq accesses
system.l2.ReadExReq_miss_rate::total         0.534381                       # miss rate for ReadExReq accesses
system.l2.ReadCleanReq_miss_rate::cpu.inst     0.999001                       # miss rate for ReadCleanReq accesses
system.l2.ReadCleanReq_miss_rate::total      0.999001                       # miss rate for ReadCleanReq accesses
system.l2.ReadSharedReq_miss_rate::cpu.data     0.316080                       # miss rate for ReadSharedReq accesses
system.l2.ReadSharedReq_miss_rate::total     0.316080                       # miss rate for ReadSharedReq accesses
system.l2.demand_miss_rate::cpu.inst         0.999001                       # miss rate for demand accesses
system.l2.demand_miss_rate::cpu.data         0.380012                       # miss rate for demand accesses
system.l2.demand_miss_rate::total            0.380327                       # miss rate for demand accesses
system.l2.overall_miss_rate::cpu.inst        0.999001                       # miss rate for overall accesses
system.l2.overall_miss_rate::cpu.data        0.380012                       # miss rate for overall accesses
system.l2.overall_miss_rate::total           0.380327                       # miss rate for overall accesses
system.l2.ReadExReq_avg_miss_latency::cpu.data 85308.557051                       # average ReadExReq miss latency
system.l2.ReadExReq_avg_miss_latency::total 85308.557051                       # average ReadExReq miss latency
system.l2.ReadCleanReq_avg_miss_latency::cpu.inst        75981                       # average ReadCleanReq miss latency
system.l2.ReadCleanReq_avg_miss_latency::total        75981                       # average ReadCleanReq miss latency
system.l2.ReadSharedReq_avg_miss_latency::cpu.data 81873.854458                       # average ReadSharedReq miss latency
system.l2.ReadSharedReq_avg_miss_latency::total 81873.854458                       # average ReadSharedReq miss latency
system.l2.demand_avg_miss_latency::cpu.inst        75981                       # average overall miss latency
system.l2.demand_avg_miss_latency::cpu.data 83288.361894                       # average overall miss latency
system.l2.demand_avg_miss_latency::total 83278.598789                       # average overall miss latency
system.l2.overall_avg_miss_latency::cpu.inst        75981                       # average overall miss latency
system.l2.overall_avg_miss_latency::cpu.data 83288.361894                       # average overall miss latency
system.l2.overall_avg_miss_latency::total 83278.598789                       # average overall miss latency
system.l2.blocked_cycles::no_mshrs                  0                       # number of cycles access was blocked
system.l2.blocked_cycles::no_targets                0                       # number of cycles access was blocked
system.l2.blocked::no_mshrs                         0                       # number of cycles access was blocked
system.l2.blocked::no_targets                       0                       # number of cycles access was blocked
system.l2.avg_blocked_cycles::no_mshrs            nan                       # average number of cycles each access was blocked
system.l2.avg_blocked_cycles::no_targets          nan                       # average number of cycles each access was blocked
system.l2.fast_writes                               0                       # number of fast writes performed
system.l2.cache_copies                              0                       # number of cache copies performed
system.l2.writebacks::writebacks               388066                       # number of writebacks
system.l2.writebacks::total                    388066                       # number of writebacks
system.l2.CleanEvict_mshr_misses::writebacks        63917                       # number of CleanEvict MSHR misses
system.l2.CleanEvict_mshr_misses::total         63917                       # number of CleanEvict MSHR misses
system.l2.ReadExReq_mshr_misses::cpu.data       307828                       # number of ReadExReq MSHR misses
system.l2.ReadExReq_mshr_misses::total         307828                       # number of ReadExReq MSHR misses
system.l2.ReadCleanReq_mshr_misses::cpu.inst         1000                       # number of ReadCleanReq MSHR misses
system.l2.ReadCleanReq_mshr_misses::total         1000                       # number of ReadCleanReq MSHR misses
system.l2.ReadSharedReq_mshr_misses::cpu.data       439639                       # number of ReadSharedReq MSHR misses
system.l2.ReadSharedReq_mshr_misses::total       439639                       # number of ReadSharedReq MSHR misses
system.l2.demand_mshr_misses::cpu.inst           1000                       # number of demand (read+write) MSHR misses
system.l2.demand_mshr_misses::cpu.data         747467                       # number of demand (read+write) MSHR misses
system.l2.demand_mshr_misses::total            748467                       # number of demand (read+write) MSHR misses
system.l2.overall_mshr_misses::cpu.inst          1000                       # number of overall MSHR misses
system.l2.overall_mshr_misses::cpu.data        747467                       # number of overall MSHR misses
system.l2.overall_mshr_misses::total           748467                       # number of overall MSHR misses
system.l2.ReadExReq_mshr_miss_latency::cpu.data  23182082500                       # number of ReadExReq MSHR miss cycles
system.l2.ReadExReq_mshr_miss_latency::total  23182082500                       # number of ReadExReq MSHR miss cycles
system.l2.ReadCleanReq_mshr_miss_latency::cpu.inst     65981000                       # number of ReadCleanReq MSHR miss cycles
system.l2.ReadCleanReq_mshr_miss_latency::total     65981000                       # number of ReadCleanReq MSHR miss cycles
system.l2.ReadSharedReq_mshr_miss_latency::cpu.data  31598549500                       # number of ReadSharedReq MSHR miss cycles
system.l2.ReadSharedReq_mshr_miss_latency::total  31598549500                       # number of ReadSharedReq MSHR miss cycles
system.l2.demand_mshr_miss_latency::cpu.inst     65981000                       # number of demand (read+write) MSHR miss cycles
system.l2.demand_mshr_miss_latency::cpu.data  54780632000                       # number of demand (read+write) MSHR miss cycles
system.l2.demand_mshr_miss_latency::total  54846613000                       # number of demand (read+write) MSHR miss cycles
system.l2.overall_mshr_miss_latency::cpu.inst     65981000                       # number of overall MSHR miss cycles
system.l2.overall_mshr_miss_latency::cpu.data  54780632000                       # number of overall MSHR miss cycles
system.l2.overall_mshr_miss_latency::total  54846613000                       # number of overall MSHR miss cycles
system.l2.CleanEvict_mshr_miss_rate::writebacks          inf                       # mshr miss rate for CleanEvict accesses
system.l2.CleanEvict_mshr_miss_rate::total          inf                       # mshr miss rate for CleanEvict accesses
system.l2.ReadExReq_mshr_miss_rate::cpu.data     0.534381                       # mshr miss rate for ReadExReq accesses
system.l2.ReadExReq_mshr_miss_rate::total     0.534381                       # mshr miss rate for ReadExReq accesses
system.l2.ReadCleanReq_mshr_miss_rate::cpu.inst     0.999001                       # mshr miss rate for ReadCleanReq accesses
system.l2.ReadCleanReq_mshr_miss_rate::total     0.999001                       # mshr miss rate for ReadCleanReq accesses
system.l2.ReadSharedReq_mshr_miss_rate::cpu.data     0.316080                       # mshr miss rate for ReadSharedReq accesses
system.l2.ReadSharedReq_mshr_miss_rate::total     0.316080                       # mshr miss rate for ReadSharedReq accesses
system.l2.demand_mshr_miss_rate::cpu.inst     0.999001                       # mshr miss rate for demand accesses
system.l2.demand_mshr_miss_rate::cpu.data     0.380012                       # mshr miss rate for demand accesses
system.l2.demand_mshr_miss_rate::total       0.380327                       # mshr miss rate for demand accesses
system.l2.overall_mshr_miss_rate::cpu.inst     0.999001                       # mshr miss rate for overall accesses
system.l2.overall_mshr_miss_rate::cpu.data     0.380012                       # mshr miss rate for overall accesses
system.l2.overall_mshr_miss_rate::total      0.380327                       # mshr miss rate for overall accesses
system.l2.ReadExReq_avg_mshr_miss_latency::cpu.data 75308.557051                       # average ReadExReq mshr miss latency
system.l2.ReadExReq_avg_mshr_miss_latency::total 75308.557051                       # average ReadExReq mshr miss latency
system.l2.ReadCleanReq_avg_mshr_miss_latency::cpu.inst        65981                       # average ReadCleanReq mshr miss latency
system.l2.ReadCleanReq_avg_mshr_miss_latency::total        65981                       # average ReadCleanReq mshr miss latency
system.l2.ReadSharedReq_avg_mshr_miss_latency::cpu.data 71873.854458                       # average ReadSharedReq mshr miss latency
system.l2.ReadSharedReq_avg_mshr_miss_latency::total 71873.854458                       # average ReadSharedReq mshr miss latency
system.l2.demand_avg_mshr_miss_latency::cpu.inst        65981                       # average overall mshr miss latency
system.l2.demand_avg_mshr_miss_latency::cpu.data 73288.361894                       # average overall mshr miss latency
system.l2.demand_avg_mshr_miss_latency::total 73278.598789                       # average overall mshr miss latency
system.l2.overall_avg_mshr_miss_latency::cpu.inst        65981                       # average overall mshr miss latency
system.l2.overall_avg_mshr_miss_latency::cpu.data 73288.361894                       # average overall mshr miss latency
system.l2.overall_avg_mshr_miss_latency::total 73278.598789                       # average overall mshr miss latency
system.l2.no_allocate_misses                        0                       # Number of misses that were no-allocate
system.membus.trans_dist::ReadResp             440639                       # Transaction distribution
system.membus.trans_dist::WritebackDirty       388066                       # Transaction distribution
system.membus.trans_dist::CleanEvict           343098                       # Transaction distribution
system.membus.trans_dist::ReadExReq            307828                       # Transaction distribution
system.membus.trans_dist::ReadExResp           307828                       # Transaction distribution
system.membus.trans_dist::ReadSharedReq        440639                       # Transaction distribution
system.membus.pkt_count_system.l2.mem_side::system.mem_ctrls.port      2228098                       # Packet count per connected master and slave (bytes)
system.membus.pkt_count_system.l2.mem_side::total      2228098                       # Packet count per connected master and slave (bytes)
system.membus.pkt_count::total                2228098                       # Packet count per connected master and slave (bytes)
system.membus.pkt_size_system.l2.mem_side::system.mem_ctrls.port     72738112                       # Cumulative packet size per connected master and slave (bytes)
system.membus.pkt_size_system.l2.mem_side::total     72738112                       # Cumulative packet size per connected master and slave (bytes)
system.membus.pkt_size::total                72738112                       # Cumulative packet size per connected master and slave (bytes)
system.membus.snoops                                0                       # Total snoops (count)
system.membus.snoop_fanout::samples           1479631                       # Request fanout histogram
system.membus.snoop_fanout::mean                    0                       # Request fanout histogram
system.membus.snoop_fanout::stdev                   0                       # Request fanout histogram
system.membus.snoop_fanout::underflows              0      0.00%      0.00% # Request fanout histogram
system.membus.snoop_fanout::0                 1479631    100.00%    100.00% # Request fanout histogram
system.membus.snoop_fanout::1                       0      0.00%    100.00% # Request fanout histogram
system.membus.snoop_fanout::overflows               0      0.00%    100.00% # Request fanout histogram
system.membus.snoop_fanout::min_value               0                       # Request fanout histogram
system.membus.snoop_fanout::max_value               0                       # Request fanout histogram
system.membus.snoop_fanout::total             1479631                       # Request fanout histogram
system.membus.reqLayer2.occupancy          3039881000                       # Layer occupancy (ticks)
system.membus.reqLayer2.utilization               0.3                       # Layer utilization (%)
system.membus.respLayer1.occupancy         4049453500                       # Layer occupancy (ticks)
system.membus.respLayer1.utilization              0.4                       # Layer utilization (%)
system.tol2bus.snoop_filter.tot_requests      3932910                       # Total number of requests made to the snoop filter.
system.tol2bus.snoop_filter.hit_single_requests      1964953                       # Number of requests hitting in the snoop filter with a single holder of the requested data.
system.tol2bus.snoop_filter.hit_multi_requests            1                       # Number of requests hitting in the snoop filter with multiple (>1) holders of the requested data.
system.tol2bus.snoop_filter.tot_snoops          84581                       # Total number of snoops made to the snoop filter.
system.tol2bus.snoop_filter.hit_single_snoops        84581                       # Number of snoops hitting in the snoop filter with a single holder of the requested data.
system.tol2bus.snoop_filter.hit_multi_snoops            0                       # Number of snoops hitting in the snoop filter with multiple (>1) holders of the requested data.
system.tol2bus.trans_dist::ReadResp           1391911                       # Transaction distribution
system.tol2bus.trans_dist::WritebackDirty      1287419                       # Transaction distribution
system.tol2bus.trans_dist::WritebackClean           45                       # Transaction distribution
system.tol2bus.trans_dist::CleanEvict         1429316                       # Transaction distribution
system.tol2bus.trans_dist::ReadExReq           576046                       # Transaction distribution
system.tol2bus.trans_dist::ReadExResp          576046                       # Transaction distribution
system.tol2bus.trans_dist::ReadCleanReq          1001                       # Transaction distribution
system.tol2bus.trans_dist::ReadSharedReq      1390910                       # Transaction distribution
system.tol2bus.pkt_count_system.cpu.icache.mem_side::system.l2.cpu_side         2047                       # Packet count per connected master and slave (bytes)
system.tol2bus.pkt_count_system.cpu.dcache.mem_side::system.l2.cpu_side      5898819                       # Packet count per connected master and slave (bytes)
system.tol2bus.pkt_count::total               5900866                       # Packet count per connected master and slave (bytes)
system.tol2bus.pkt_size_system.cpu.icache.mem_side::system.l2.cpu_side        66944                       # Cumulative packet size per connected master and slave (bytes)
system.tol2bus.pkt_size_system.cpu.dcache.mem_side::system.l2.cpu_side    183443776                       # Cumulative packet size per connected master and slave (bytes)
system.tol2bus.pkt_size::total              183510720                       # Cumulative packet size per connected master and slave (bytes)
system.tol2bus.snoops                          751828                       # Total snoops (count)
system.tol2bus.snoop_fanout::samples          2719785                       # Request fanout histogram
system.tol2bus.snoop_fanout::mean            0.031099                       # Request fanout histogram
system.tol2bus.snoop_fanout::stdev           0.173585                       # Request fanout histogram
system.tol2bus.snoop_fanout::underflows             0      0.00%      0.00% # Request fanout histogram
system.tol2bus.snoop_fanout::0                2635203     96.89%     96.89% # Request fanout histogram
system.tol2bus.snoop_fanout::1                  84582      3.11%    100.00% # Request fanout histogram
system.tol2bus.snoop_fanout::2                      0      0.00%    100.00% # Request fanout histogram
system.tol2bus.snoop_fanout::3                      0      0.00%    100.00% # Request fanout histogram
system.tol2bus.snoop_fanout::4                      0      0.00%    100.00% # Request fanout histogram
system.tol2bus.snoop_fanout::overflows              0      0.00%    100.00% # Request fanout histogram
system.tol2bus.snoop_fanout::min_value              0                       # Request fanout histogram
system.tol2bus.snoop_fanout::max_value              1                       # Request fanout histogram
system.tol2bus.snoop_fanout::total            2719785                       # Request fanout histogram
system.tol2bus.reqLayer0.occupancy         2865853000                       # Layer occupancy (ticks)
system.tol2bus.reqLayer0.utilization              0.3                       # Layer utilization (%)
system.tol2bus.respLayer0.occupancy           1501500                       # Layer occupancy (ticks)
system.tol2bus.respLayer0.utilization             0.0                       # Layer utilization (%)
system.tol2bus.respLayer1.occupancy        2950434000                       # Layer occupancy (ticks)
system.tol2bus.respLayer1.utilization             0.3                       # Layer utilization (%)

---------- End Simulation Statistics   ----------
