
---------- Begin Simulation Statistics ----------
sim_seconds                                  1.901046                       # Number of seconds simulated
sim_ticks                                1901046251500                       # Number of ticks simulated
final_tick                               1901046251500                       # Number of ticks from beginning of simulation (restored from checkpoints and never reset)
sim_freq                                 1000000000000                       # Frequency of simulated ticks
host_inst_rate                                  34269                       # Simulator instruction rate (inst/s)
host_op_rate                                    60061                       # Simulator op (including micro ops) rate (op/s)
host_tick_rate                              130294220                       # Simulator tick rate (ticks/s)
host_mem_usage                                 824088                       # Number of bytes of host memory used
host_seconds                                 14590.41                       # Real time elapsed on the host
sim_insts                                   500000000                       # Number of instructions simulated
sim_ops                                     876313787                       # Number of ops (including micro ops) simulated
system.voltage_domain.voltage                       1                       # Voltage in Volts
system.clk_domain.clock                          1000                       # Clock period in ticks
system.mem_ctrls.bytes_read::cpu.inst           43264                       # Number of bytes read from this memory
system.mem_ctrls.bytes_read::cpu.data       639550784                       # Number of bytes read from this memory
system.mem_ctrls.bytes_read::total          639594048                       # Number of bytes read from this memory
system.mem_ctrls.bytes_inst_read::cpu.inst        43264                       # Number of instructions bytes read from this memory
system.mem_ctrls.bytes_inst_read::total         43264                       # Number of instructions bytes read from this memory
system.mem_ctrls.bytes_written::writebacks     89766336                       # Number of bytes written to this memory
system.mem_ctrls.bytes_written::total        89766336                       # Number of bytes written to this memory
system.mem_ctrls.num_reads::cpu.inst              676                       # Number of read requests responded to by this memory
system.mem_ctrls.num_reads::cpu.data          9992981                       # Number of read requests responded to by this memory
system.mem_ctrls.num_reads::total             9993657                       # Number of read requests responded to by this memory
system.mem_ctrls.num_writes::writebacks       1402599                       # Number of write requests responded to by this memory
system.mem_ctrls.num_writes::total            1402599                       # Number of write requests responded to by this memory
system.mem_ctrls.bw_read::cpu.inst              22758                       # Total read bandwidth from this memory (bytes/s)
system.mem_ctrls.bw_read::cpu.data          336420423                       # Total read bandwidth from this memory (bytes/s)
system.mem_ctrls.bw_read::total             336443181                       # Total read bandwidth from this memory (bytes/s)
system.mem_ctrls.bw_inst_read::cpu.inst         22758                       # Instruction read bandwidth from this memory (bytes/s)
system.mem_ctrls.bw_inst_read::total            22758                       # Instruction read bandwidth from this memory (bytes/s)
system.mem_ctrls.bw_write::writebacks        47219438                       # Write bandwidth from this memory (bytes/s)
system.mem_ctrls.bw_write::total             47219438                       # Write bandwidth from this memory (bytes/s)
system.mem_ctrls.bw_total::writebacks        47219438                       # Total bandwidth to/from this memory (bytes/s)
system.mem_ctrls.bw_total::cpu.inst             22758                       # Total bandwidth to/from this memory (bytes/s)
system.mem_ctrls.bw_total::cpu.data         336420423                       # Total bandwidth to/from this memory (bytes/s)
system.mem_ctrls.bw_total::total            383662619                       # Total bandwidth to/from this memory (bytes/s)
system.mem_ctrls.readReqs                     9993657                       # Number of read requests accepted
system.mem_ctrls.writeReqs                    1402599                       # Number of write requests accepted
system.mem_ctrls.readBursts                   9993657                       # Number of DRAM read bursts, including those serviced by the write queue
system.mem_ctrls.writeBursts                  1402599                       # Number of DRAM write bursts, including those merged in the write queue
system.mem_ctrls.bytesReadDRAM              633207232                       # Total number of bytes read from DRAM
system.mem_ctrls.bytesReadWrQ                 6386816                       # Total number of bytes read from write queue
system.mem_ctrls.bytesWritten                88917312                       # Total number of bytes written to DRAM
system.mem_ctrls.bytesReadSys               639594048                       # Total read bytes from the system interface side
system.mem_ctrls.bytesWrittenSys             89766336                       # Total written bytes from the system interface side
system.mem_ctrls.servicedByWrQ                  99794                       # Number of DRAM read bursts serviced by the write queue
system.mem_ctrls.mergedWrBursts                 13234                       # Number of DRAM write bursts merged with an existing one
system.mem_ctrls.neitherReadNorWriteReqs      8588315                       # Number of requests that are neither read nor write
system.mem_ctrls.perBankRdBursts::0            612507                       # Per bank write bursts
system.mem_ctrls.perBankRdBursts::1            601192                       # Per bank write bursts
system.mem_ctrls.perBankRdBursts::2            593559                       # Per bank write bursts
system.mem_ctrls.perBankRdBursts::3            666420                       # Per bank write bursts
system.mem_ctrls.perBankRdBursts::4            598239                       # Per bank write bursts
system.mem_ctrls.perBankRdBursts::5            591830                       # Per bank write bursts
system.mem_ctrls.perBankRdBursts::6            611742                       # Per bank write bursts
system.mem_ctrls.perBankRdBursts::7            594595                       # Per bank write bursts
system.mem_ctrls.perBankRdBursts::8            589738                       # Per bank write bursts
system.mem_ctrls.perBankRdBursts::9            596216                       # Per bank write bursts
system.mem_ctrls.perBankRdBursts::10           618448                       # Per bank write bursts
system.mem_ctrls.perBankRdBursts::11           704688                       # Per bank write bursts
system.mem_ctrls.perBankRdBursts::12           627665                       # Per bank write bursts
system.mem_ctrls.perBankRdBursts::13           625866                       # Per bank write bursts
system.mem_ctrls.perBankRdBursts::14           646253                       # Per bank write bursts
system.mem_ctrls.perBankRdBursts::15           614905                       # Per bank write bursts
system.mem_ctrls.perBankWrBursts::0             83886                       # Per bank write bursts
system.mem_ctrls.perBankWrBursts::1             84195                       # Per bank write bursts
system.mem_ctrls.perBankWrBursts::2             84214                       # Per bank write bursts
system.mem_ctrls.perBankWrBursts::3            117388                       # Per bank write bursts
system.mem_ctrls.perBankWrBursts::4             92782                       # Per bank write bursts
system.mem_ctrls.perBankWrBursts::5             80192                       # Per bank write bursts
system.mem_ctrls.perBankWrBursts::6             99262                       # Per bank write bursts
system.mem_ctrls.perBankWrBursts::7             79533                       # Per bank write bursts
system.mem_ctrls.perBankWrBursts::8             79365                       # Per bank write bursts
system.mem_ctrls.perBankWrBursts::9             77648                       # Per bank write bursts
system.mem_ctrls.perBankWrBursts::10            80084                       # Per bank write bursts
system.mem_ctrls.perBankWrBursts::11            90486                       # Per bank write bursts
system.mem_ctrls.perBankWrBursts::12            84067                       # Per bank write bursts
system.mem_ctrls.perBankWrBursts::13            85251                       # Per bank write bursts
system.mem_ctrls.perBankWrBursts::14            87005                       # Per bank write bursts
system.mem_ctrls.perBankWrBursts::15            83975                       # Per bank write bursts
system.mem_ctrls.numRdRetry                         0                       # Number of times read queue was full causing retry
system.mem_ctrls.numWrRetry                         0                       # Number of times write queue was full causing retry
system.mem_ctrls.totGap                  1901044120500                       # Total gap between requests
system.mem_ctrls.readPktSize::0                     0                       # Read request sizes (log2)
system.mem_ctrls.readPktSize::1                     0                       # Read request sizes (log2)
system.mem_ctrls.readPktSize::2                     0                       # Read request sizes (log2)
system.mem_ctrls.readPktSize::3                     0                       # Read request sizes (log2)
system.mem_ctrls.readPktSize::4                     0                       # Read request sizes (log2)
system.mem_ctrls.readPktSize::5                     0                       # Read request sizes (log2)
system.mem_ctrls.readPktSize::6               9993657                       # Read request sizes (log2)
system.mem_ctrls.writePktSize::0                    0                       # Write request sizes (log2)
system.mem_ctrls.writePktSize::1                    0                       # Write request sizes (log2)
system.mem_ctrls.writePktSize::2                    0                       # Write request sizes (log2)
system.mem_ctrls.writePktSize::3                    0                       # Write request sizes (log2)
system.mem_ctrls.writePktSize::4                    0                       # Write request sizes (log2)
system.mem_ctrls.writePktSize::5                    0                       # Write request sizes (log2)
system.mem_ctrls.writePktSize::6              1402599                       # Write request sizes (log2)
system.mem_ctrls.rdQLenPdf::0                 9893863                       # What read queue length does an incoming req see
system.mem_ctrls.rdQLenPdf::1                       0                       # What read queue length does an incoming req see
system.mem_ctrls.rdQLenPdf::2                       0                       # What read queue length does an incoming req see
system.mem_ctrls.rdQLenPdf::3                       0                       # What read queue length does an incoming req see
system.mem_ctrls.rdQLenPdf::4                       0                       # What read queue length does an incoming req see
system.mem_ctrls.rdQLenPdf::5                       0                       # What read queue length does an incoming req see
system.mem_ctrls.rdQLenPdf::6                       0                       # What read queue length does an incoming req see
system.mem_ctrls.rdQLenPdf::7                       0                       # What read queue length does an incoming req see
system.mem_ctrls.rdQLenPdf::8                       0                       # What read queue length does an incoming req see
system.mem_ctrls.rdQLenPdf::9                       0                       # What read queue length does an incoming req see
system.mem_ctrls.rdQLenPdf::10                      0                       # What read queue length does an incoming req see
system.mem_ctrls.rdQLenPdf::11                      0                       # What read queue length does an incoming req see
system.mem_ctrls.rdQLenPdf::12                      0                       # What read queue length does an incoming req see
system.mem_ctrls.rdQLenPdf::13                      0                       # What read queue length does an incoming req see
system.mem_ctrls.rdQLenPdf::14                      0                       # What read queue length does an incoming req see
system.mem_ctrls.rdQLenPdf::15                      0                       # What read queue length does an incoming req see
system.mem_ctrls.rdQLenPdf::16                      0                       # What read queue length does an incoming req see
system.mem_ctrls.rdQLenPdf::17                      0                       # What read queue length does an incoming req see
system.mem_ctrls.rdQLenPdf::18                      0                       # What read queue length does an incoming req see
system.mem_ctrls.rdQLenPdf::19                      0                       # What read queue length does an incoming req see
system.mem_ctrls.rdQLenPdf::20                      0                       # What read queue length does an incoming req see
system.mem_ctrls.rdQLenPdf::21                      0                       # What read queue length does an incoming req see
system.mem_ctrls.rdQLenPdf::22                      0                       # What read queue length does an incoming req see
system.mem_ctrls.rdQLenPdf::23                      0                       # What read queue length does an incoming req see
system.mem_ctrls.rdQLenPdf::24                      0                       # What read queue length does an incoming req see
system.mem_ctrls.rdQLenPdf::25                      0                       # What read queue length does an incoming req see
system.mem_ctrls.rdQLenPdf::26                      0                       # What read queue length does an incoming req see
system.mem_ctrls.rdQLenPdf::27                      0                       # What read queue length does an incoming req see
system.mem_ctrls.rdQLenPdf::28                      0                       # What read queue length does an incoming req see
system.mem_ctrls.rdQLenPdf::29                      0                       # What read queue length does an incoming req see
system.mem_ctrls.rdQLenPdf::30                      0                       # What read queue length does an incoming req see
system.mem_ctrls.rdQLenPdf::31                      0                       # What read queue length does an incoming req see
system.mem_ctrls.wrQLenPdf::0                       1                       # What write queue length does an incoming req see
system.mem_ctrls.wrQLenPdf::1                       1                       # What write queue length does an incoming req see
system.mem_ctrls.wrQLenPdf::2                       1                       # What write queue length does an incoming req see
system.mem_ctrls.wrQLenPdf::3                       1                       # What write queue length does an incoming req see
system.mem_ctrls.wrQLenPdf::4                       1                       # What write queue length does an incoming req see
system.mem_ctrls.wrQLenPdf::5                       1                       # What write queue length does an incoming req see
system.mem_ctrls.wrQLenPdf::6                       1                       # What write queue length does an incoming req see
system.mem_ctrls.wrQLenPdf::7                       1                       # What write queue length does an incoming req see
system.mem_ctrls.wrQLenPdf::8                       1                       # What write queue length does an incoming req see
system.mem_ctrls.wrQLenPdf::9                       1                       # What write queue length does an incoming req see
system.mem_ctrls.wrQLenPdf::10                      1                       # What write queue length does an incoming req see
system.mem_ctrls.wrQLenPdf::11                      1                       # What write queue length does an incoming req see
system.mem_ctrls.wrQLenPdf::12                      1                       # What write queue length does an incoming req see
system.mem_ctrls.wrQLenPdf::13                      1                       # What write queue length does an incoming req see
system.mem_ctrls.wrQLenPdf::14                      1                       # What write queue length does an incoming req see
system.mem_ctrls.wrQLenPdf::15                  25889                       # What write queue length does an incoming req see
system.mem_ctrls.wrQLenPdf::16                  27407                       # What write queue length does an incoming req see
system.mem_ctrls.wrQLenPdf::17                  83609                       # What write queue length does an incoming req see
system.mem_ctrls.wrQLenPdf::18                  83544                       # What write queue length does an incoming req see
system.mem_ctrls.wrQLenPdf::19                  83504                       # What write queue length does an incoming req see
system.mem_ctrls.wrQLenPdf::20                  83493                       # What write queue length does an incoming req see
system.mem_ctrls.wrQLenPdf::21                  83494                       # What write queue length does an incoming req see
system.mem_ctrls.wrQLenPdf::22                  83493                       # What write queue length does an incoming req see
system.mem_ctrls.wrQLenPdf::23                  83492                       # What write queue length does an incoming req see
system.mem_ctrls.wrQLenPdf::24                  83493                       # What write queue length does an incoming req see
system.mem_ctrls.wrQLenPdf::25                  83493                       # What write queue length does an incoming req see
system.mem_ctrls.wrQLenPdf::26                  83492                       # What write queue length does an incoming req see
system.mem_ctrls.wrQLenPdf::27                  83492                       # What write queue length does an incoming req see
system.mem_ctrls.wrQLenPdf::28                  83492                       # What write queue length does an incoming req see
system.mem_ctrls.wrQLenPdf::29                  83491                       # What write queue length does an incoming req see
system.mem_ctrls.wrQLenPdf::30                  83491                       # What write queue length does an incoming req see
system.mem_ctrls.wrQLenPdf::31                  83491                       # What write queue length does an incoming req see
system.mem_ctrls.wrQLenPdf::32                  83490                       # What write queue length does an incoming req see
system.mem_ctrls.wrQLenPdf::33                      0                       # What write queue length does an incoming req see
system.mem_ctrls.wrQLenPdf::34                      0                       # What write queue length does an incoming req see
system.mem_ctrls.wrQLenPdf::35                      0                       # What write queue length does an incoming req see
system.mem_ctrls.wrQLenPdf::36                      0                       # What write queue length does an incoming req see
system.mem_ctrls.wrQLenPdf::37                      0                       # What write queue length does an incoming req see
system.mem_ctrls.wrQLenPdf::38                      0                       # What write queue length does an incoming req see
system.mem_ctrls.wrQLenPdf::39                      0                       # What write queue length does an incoming req see
system.mem_ctrls.wrQLenPdf::40                      0                       # What write queue length does an incoming req see
system.mem_ctrls.wrQLenPdf::41                      0                       # What write queue length does an incoming req see
system.mem_ctrls.wrQLenPdf::42                      0                       # What write queue length does an incoming req see
system.mem_ctrls.wrQLenPdf::43                      0                       # What write queue length does an incoming req see
system.mem_ctrls.wrQLenPdf::44                      0                       # What write queue length does an incoming req see
system.mem_ctrls.wrQLenPdf::45                      0                       # What write queue length does an incoming req see
system.mem_ctrls.wrQLenPdf::46                      0                       # What write queue length does an incoming req see
system.mem_ctrls.wrQLenPdf::47                      0                       # What write queue length does an incoming req see
system.mem_ctrls.wrQLenPdf::48                      0                       # What write queue length does an incoming req see
system.mem_ctrls.wrQLenPdf::49                      0                       # What write queue length does an incoming req see
system.mem_ctrls.wrQLenPdf::50                      0                       # What write queue length does an incoming req see
system.mem_ctrls.wrQLenPdf::51                      0                       # What write queue length does an incoming req see
system.mem_ctrls.wrQLenPdf::52                      0                       # What write queue length does an incoming req see
system.mem_ctrls.wrQLenPdf::53                      0                       # What write queue length does an incoming req see
system.mem_ctrls.wrQLenPdf::54                      0                       # What write queue length does an incoming req see
system.mem_ctrls.wrQLenPdf::55                      0                       # What write queue length does an incoming req see
system.mem_ctrls.wrQLenPdf::56                      0                       # What write queue length does an incoming req see
system.mem_ctrls.wrQLenPdf::57                      0                       # What write queue length does an incoming req see
system.mem_ctrls.wrQLenPdf::58                      0                       # What write queue length does an incoming req see
system.mem_ctrls.wrQLenPdf::59                      0                       # What write queue length does an incoming req see
system.mem_ctrls.wrQLenPdf::60                      0                       # What write queue length does an incoming req see
system.mem_ctrls.wrQLenPdf::61                      0                       # What write queue length does an incoming req see
system.mem_ctrls.wrQLenPdf::62                      0                       # What write queue length does an incoming req see
system.mem_ctrls.wrQLenPdf::63                      0                       # What write queue length does an incoming req see
system.mem_ctrls.bytesPerActivate::samples      8722474                       # Bytes accessed per row activation
system.mem_ctrls.bytesPerActivate::mean     82.788959                       # Bytes accessed per row activation
system.mem_ctrls.bytesPerActivate::gmean    71.542239                       # Bytes accessed per row activation
system.mem_ctrls.bytesPerActivate::stdev    96.709828                       # Bytes accessed per row activation
system.mem_ctrls.bytesPerActivate::0-127      7801532     89.44%     89.44% # Bytes accessed per row activation
system.mem_ctrls.bytesPerActivate::128-255       719663      8.25%     97.69% # Bytes accessed per row activation
system.mem_ctrls.bytesPerActivate::256-383        68967      0.79%     98.48% # Bytes accessed per row activation
system.mem_ctrls.bytesPerActivate::384-511        24583      0.28%     98.76% # Bytes accessed per row activation
system.mem_ctrls.bytesPerActivate::512-639        15293      0.18%     98.94% # Bytes accessed per row activation
system.mem_ctrls.bytesPerActivate::640-767        14909      0.17%     99.11% # Bytes accessed per row activation
system.mem_ctrls.bytesPerActivate::768-895        13183      0.15%     99.26% # Bytes accessed per row activation
system.mem_ctrls.bytesPerActivate::896-1023         7572      0.09%     99.35% # Bytes accessed per row activation
system.mem_ctrls.bytesPerActivate::1024-1151        56772      0.65%    100.00% # Bytes accessed per row activation
system.mem_ctrls.bytesPerActivate::total      8722474                       # Bytes accessed per row activation
system.mem_ctrls.rdPerTurnAround::samples        83490                       # Reads before turning the bus around for writes
system.mem_ctrls.rdPerTurnAround::mean     118.502048                       # Reads before turning the bus around for writes
system.mem_ctrls.rdPerTurnAround::gmean     58.578956                       # Reads before turning the bus around for writes
system.mem_ctrls.rdPerTurnAround::stdev    171.960568                       # Reads before turning the bus around for writes
system.mem_ctrls.rdPerTurnAround::0-127         64300     77.02%     77.02% # Reads before turning the bus around for writes
system.mem_ctrls.rdPerTurnAround::128-255         5263      6.30%     83.32% # Reads before turning the bus around for writes
system.mem_ctrls.rdPerTurnAround::256-383         5778      6.92%     90.24% # Reads before turning the bus around for writes
system.mem_ctrls.rdPerTurnAround::384-511         4202      5.03%     95.27% # Reads before turning the bus around for writes
system.mem_ctrls.rdPerTurnAround::512-639         2254      2.70%     97.97% # Reads before turning the bus around for writes
system.mem_ctrls.rdPerTurnAround::640-767          970      1.16%     99.13% # Reads before turning the bus around for writes
system.mem_ctrls.rdPerTurnAround::768-895          349      0.42%     99.55% # Reads before turning the bus around for writes
system.mem_ctrls.rdPerTurnAround::896-1023          185      0.22%     99.77% # Reads before turning the bus around for writes
system.mem_ctrls.rdPerTurnAround::1024-1151           97      0.12%     99.89% # Reads before turning the bus around for writes
system.mem_ctrls.rdPerTurnAround::1152-1279           46      0.06%     99.94% # Reads before turning the bus around for writes
system.mem_ctrls.rdPerTurnAround::1280-1407           18      0.02%     99.97% # Reads before turning the bus around for writes
system.mem_ctrls.rdPerTurnAround::1408-1535           20      0.02%     99.99% # Reads before turning the bus around for writes
system.mem_ctrls.rdPerTurnAround::1536-1663            1      0.00%     99.99% # Reads before turning the bus around for writes
system.mem_ctrls.rdPerTurnAround::1664-1791            3      0.00%    100.00% # Reads before turning the bus around for writes
system.mem_ctrls.rdPerTurnAround::1792-1919            2      0.00%    100.00% # Reads before turning the bus around for writes
system.mem_ctrls.rdPerTurnAround::1920-2047            1      0.00%    100.00% # Reads before turning the bus around for writes
system.mem_ctrls.rdPerTurnAround::2304-2431            1      0.00%    100.00% # Reads before turning the bus around for writes
system.mem_ctrls.rdPerTurnAround::total         83490                       # Reads before turning the bus around for writes
system.mem_ctrls.wrPerTurnAround::samples        83490                       # Writes before turning the bus around for reads
system.mem_ctrls.wrPerTurnAround::mean      16.640711                       # Writes before turning the bus around for reads
system.mem_ctrls.wrPerTurnAround::gmean     16.615595                       # Writes before turning the bus around for reads
system.mem_ctrls.wrPerTurnAround::stdev      0.927135                       # Writes before turning the bus around for reads
system.mem_ctrls.wrPerTurnAround::16            56084     67.17%     67.17% # Writes before turning the bus around for reads
system.mem_ctrls.wrPerTurnAround::17             1505      1.80%     68.98% # Writes before turning the bus around for reads
system.mem_ctrls.wrPerTurnAround::18            25715     30.80%     99.78% # Writes before turning the bus around for reads
system.mem_ctrls.wrPerTurnAround::19              186      0.22%    100.00% # Writes before turning the bus around for reads
system.mem_ctrls.wrPerTurnAround::total         83490                       # Writes before turning the bus around for reads
system.mem_ctrls.totQLat                 227142891000                       # Total ticks spent queuing
system.mem_ctrls.totMemAccLat            412652822250                       # Total ticks spent from burst creation until serviced by the DRAM
system.mem_ctrls.totBusLat                49469315000                       # Total ticks spent in databus transfers
system.mem_ctrls.avgQLat                     22957.96                       # Average queueing delay per DRAM burst
system.mem_ctrls.avgBusLat                    5000.00                       # Average bus latency per DRAM burst
system.mem_ctrls.avgMemAccLat                41707.96                       # Average memory access latency per DRAM burst
system.mem_ctrls.avgRdBW                       333.08                       # Average DRAM read bandwidth in MiByte/s
system.mem_ctrls.avgWrBW                        46.77                       # Average achieved write bandwidth in MiByte/s
system.mem_ctrls.avgRdBWSys                    336.44                       # Average system read bandwidth in MiByte/s
system.mem_ctrls.avgWrBWSys                     47.22                       # Average system write bandwidth in MiByte/s
system.mem_ctrls.peakBW                      12800.00                       # Theoretical peak bandwidth in MiByte/s
system.mem_ctrls.busUtil                         2.97                       # Data bus utilization in percentage
system.mem_ctrls.busUtilRead                     2.60                       # Data bus utilization in percentage for reads
system.mem_ctrls.busUtilWrite                    0.37                       # Data bus utilization in percentage for writes
system.mem_ctrls.avgRdQLen                       1.00                       # Average read queue length when enqueuing
system.mem_ctrls.avgWrQLen                      25.08                       # Average write queue length when enqueuing
system.mem_ctrls.readRowHits                  1827012                       # Number of row buffer hits during reads
system.mem_ctrls.writeRowHits                  733710                       # Number of row buffer hits during writes
system.mem_ctrls.readRowHitRate                 18.47                       # Row buffer hit rate for reads
system.mem_ctrls.writeRowHitRate                52.81                       # Row buffer hit rate for writes
system.mem_ctrls.avgGap                     166813.04                       # Average gap between requests
system.mem_ctrls.pageHitRate                    22.69                       # Row buffer hit rate, read and write combined
system.mem_ctrls_0.actEnergy              32479120800                       # Energy for activate commands per rank (pJ)
system.mem_ctrls_0.preEnergy              17721742500                       # Energy for precharge commands per rank (pJ)
system.mem_ctrls_0.readEnergy             37986655200                       # Energy for read commands per rank (pJ)
system.mem_ctrls_0.writeEnergy             4675008960                       # Energy for write commands per rank (pJ)
system.mem_ctrls_0.refreshEnergy         124166958240                       # Energy for refresh commands per rank (pJ)
system.mem_ctrls_0.actBackEnergy         1074963844170                       # Energy for active background per rank (pJ)
system.mem_ctrls_0.preBackEnergy         197675865750                       # Energy for precharge background per rank (pJ)
system.mem_ctrls_0.totalEnergy           1489669195620                       # Total energy per rank (pJ)
system.mem_ctrls_0.averagePower            783.605706                       # Core power per rank (mW)
system.mem_ctrls_0.memoryStateTime::IDLE 322531623250                       # Time in different power states
system.mem_ctrls_0.memoryStateTime::REF   63480040000                       # Time in different power states
system.mem_ctrls_0.memoryStateTime::PRE_PDN            0                       # Time in different power states
system.mem_ctrls_0.memoryStateTime::ACT  1515032693500                       # Time in different power states
system.mem_ctrls_0.memoryStateTime::ACT_PDN            0                       # Time in different power states
system.mem_ctrls_1.actEnergy              33462782640                       # Energy for activate commands per rank (pJ)
system.mem_ctrls_1.preEnergy              18258462750                       # Energy for precharge commands per rank (pJ)
system.mem_ctrls_1.readEnergy             39185476200                       # Energy for read commands per rank (pJ)
system.mem_ctrls_1.writeEnergy             4327868880                       # Energy for write commands per rank (pJ)
system.mem_ctrls_1.refreshEnergy         124166958240                       # Energy for refresh commands per rank (pJ)
system.mem_ctrls_1.actBackEnergy         1069673996790                       # Energy for active background per rank (pJ)
system.mem_ctrls_1.preBackEnergy         202316073750                       # Energy for precharge background per rank (pJ)
system.mem_ctrls_1.totalEnergy           1491391619250                       # Total energy per rank (pJ)
system.mem_ctrls_1.averagePower            784.511753                       # Core power per rank (mW)
system.mem_ctrls_1.memoryStateTime::IDLE 330040033000                       # Time in different power states
system.mem_ctrls_1.memoryStateTime::REF   63480040000                       # Time in different power states
system.mem_ctrls_1.memoryStateTime::PRE_PDN            0                       # Time in different power states
system.mem_ctrls_1.memoryStateTime::ACT  1507524269500                       # Time in different power states
system.mem_ctrls_1.memoryStateTime::ACT_PDN            0                       # Time in different power states
system.cpu_voltage_domain.voltage                   1                       # Voltage in Volts
system.cpu_clk_domain.clock                       500                       # Clock period in ticks
system.cpu.apic_clk_domain.clock                 8000                       # Clock period in ticks
system.cpu.workload.num_syscalls                  168                       # Number of system calls
system.cpu.numCycles                       3802092503                       # number of cpu cycles simulated
system.cpu.numWorkItemsStarted                      0                       # number of work items this cpu started
system.cpu.numWorkItemsCompleted                    0                       # number of work items this cpu completed
system.cpu.committedInsts                   500000000                       # Number of instructions committed
system.cpu.committedOps                     876313787                       # Number of ops (including micro ops) committed
system.cpu.num_int_alu_accesses             872966684                       # Number of integer alu accesses
system.cpu.num_fp_alu_accesses                2882231                       # Number of float alu accesses
system.cpu.num_func_calls                    11025254                       # number of times a function call or return occured
system.cpu.num_conditional_control_insts     75981010                       # number of instructions that are conditional controls
system.cpu.num_int_insts                    872966684                       # number of integer instructions
system.cpu.num_fp_insts                       2882231                       # number of float instructions
system.cpu.num_int_register_reads          1835046968                       # number of times the integer registers were read
system.cpu.num_int_register_writes          703076421                       # number of times the integer registers were written
system.cpu.num_fp_register_reads              4386063                       # number of times the floating registers were read
system.cpu.num_fp_register_writes             2464405                       # number of times the floating registers were written
system.cpu.num_cc_register_reads            441654672                       # number of times the CC registers were read
system.cpu.num_cc_register_writes           253505512                       # number of times the CC registers were written
system.cpu.num_mem_refs                     293763601                       # number of memory refs
system.cpu.num_load_insts                   221285044                       # Number of load instructions
system.cpu.num_store_insts                   72478557                       # Number of store instructions
system.cpu.num_idle_cycles                          0                       # Number of idle cycles
system.cpu.num_busy_cycles                 3802092503                       # Number of busy cycles
system.cpu.not_idle_fraction                        1                       # Percentage of non-idle cycles
system.cpu.idle_fraction                            0                       # Percentage of idle cycles
system.cpu.Branches                          97901002                       # Number of branches fetched
system.cpu.op_class::No_OpClass                939429      0.11%      0.11% # Class of executed instruction
system.cpu.op_class::IntAlu                 578420256     66.01%     66.11% # Class of executed instruction
system.cpu.op_class::IntMult                   907073      0.10%     66.22% # Class of executed instruction
system.cpu.op_class::IntDiv                        42      0.00%     66.22% # Class of executed instruction
system.cpu.op_class::FloatAdd                 2283386      0.26%     66.48% # Class of executed instruction
system.cpu.op_class::FloatCmp                       0      0.00%     66.48% # Class of executed instruction
system.cpu.op_class::FloatCvt                       0      0.00%     66.48% # Class of executed instruction
system.cpu.op_class::FloatMult                      0      0.00%     66.48% # Class of executed instruction
system.cpu.op_class::FloatDiv                       0      0.00%     66.48% # Class of executed instruction
system.cpu.op_class::FloatSqrt                      0      0.00%     66.48% # Class of executed instruction
system.cpu.op_class::SimdAdd                        0      0.00%     66.48% # Class of executed instruction
system.cpu.op_class::SimdAddAcc                     0      0.00%     66.48% # Class of executed instruction
system.cpu.op_class::SimdAlu                        0      0.00%     66.48% # Class of executed instruction
system.cpu.op_class::SimdCmp                        0      0.00%     66.48% # Class of executed instruction
system.cpu.op_class::SimdCvt                        0      0.00%     66.48% # Class of executed instruction
system.cpu.op_class::SimdMisc                       0      0.00%     66.48% # Class of executed instruction
system.cpu.op_class::SimdMult                       0      0.00%     66.48% # Class of executed instruction
system.cpu.op_class::SimdMultAcc                    0      0.00%     66.48% # Class of executed instruction
system.cpu.op_class::SimdShift                      0      0.00%     66.48% # Class of executed instruction
system.cpu.op_class::SimdShiftAcc                   0      0.00%     66.48% # Class of executed instruction
system.cpu.op_class::SimdSqrt                       0      0.00%     66.48% # Class of executed instruction
system.cpu.op_class::SimdFloatAdd                   0      0.00%     66.48% # Class of executed instruction
system.cpu.op_class::SimdFloatAlu                   0      0.00%     66.48% # Class of executed instruction
system.cpu.op_class::SimdFloatCmp                   0      0.00%     66.48% # Class of executed instruction
system.cpu.op_class::SimdFloatCvt                   0      0.00%     66.48% # Class of executed instruction
system.cpu.op_class::SimdFloatDiv                   0      0.00%     66.48% # Class of executed instruction
system.cpu.op_class::SimdFloatMisc                  0      0.00%     66.48% # Class of executed instruction
system.cpu.op_class::SimdFloatMult                  0      0.00%     66.48% # Class of executed instruction
system.cpu.op_class::SimdFloatMultAcc               0      0.00%     66.48% # Class of executed instruction
system.cpu.op_class::SimdFloatSqrt                  0      0.00%     66.48% # Class of executed instruction
system.cpu.op_class::MemRead                221285044     25.25%     91.73% # Class of executed instruction
system.cpu.op_class::MemWrite                72478557      8.27%    100.00% # Class of executed instruction
system.cpu.op_class::IprAccess                      0      0.00%    100.00% # Class of executed instruction
system.cpu.op_class::InstPrefetch                   0      0.00%    100.00% # Class of executed instruction
system.cpu.op_class::total                  876313787                       # Class of executed instruction
system.cpu.dcache.tags.replacements          10223913                       # number of replacements
system.cpu.dcache.tags.tagsinuse          2047.408015                       # Cycle average of tags in use
system.cpu.dcache.tags.total_refs           283551768                       # Total number of references to valid blocks.
system.cpu.dcache.tags.sampled_refs          10225961                       # Sample count of references to valid blocks.
system.cpu.dcache.tags.avg_refs             27.728618                       # Average number of references to valid blocks.
system.cpu.dcache.tags.warmup_cycle        1262398500                       # Cycle when the warmup percentage was hit.
system.cpu.dcache.tags.occ_blocks::cpu.data  2047.408015                       # Average occupied blocks per requestor
system.cpu.dcache.tags.occ_percent::cpu.data     0.999711                       # Average percentage of cache occupancy
system.cpu.dcache.tags.occ_percent::total     0.999711                       # Average percentage of cache occupancy
system.cpu.dcache.tags.occ_task_id_blocks::1024         2048                       # Occupied blocks per task id
system.cpu.dcache.tags.age_task_id_blocks_1024::0            2                       # Occupied blocks per task id
system.cpu.dcache.tags.age_task_id_blocks_1024::1          535                       # Occupied blocks per task id
system.cpu.dcache.tags.age_task_id_blocks_1024::2         1261                       # Occupied blocks per task id
system.cpu.dcache.tags.age_task_id_blocks_1024::3          246                       # Occupied blocks per task id
system.cpu.dcache.tags.age_task_id_blocks_1024::4            4                       # Occupied blocks per task id
system.cpu.dcache.tags.occ_task_id_percent::1024            1                       # Percentage of cache occupancy per task id
system.cpu.dcache.tags.tag_accesses         597781419                       # Number of tag accesses
system.cpu.dcache.tags.data_accesses        597781419                       # Number of data accesses
system.cpu.dcache.ReadReq_hits::cpu.data    211414955                       # number of ReadReq hits
system.cpu.dcache.ReadReq_hits::total       211414955                       # number of ReadReq hits
system.cpu.dcache.WriteReq_hits::cpu.data     72136813                       # number of WriteReq hits
system.cpu.dcache.WriteReq_hits::total       72136813                       # number of WriteReq hits
system.cpu.dcache.demand_hits::cpu.data     283551768                       # number of demand (read+write) hits
system.cpu.dcache.demand_hits::total        283551768                       # number of demand (read+write) hits
system.cpu.dcache.overall_hits::cpu.data    283551768                       # number of overall hits
system.cpu.dcache.overall_hits::total       283551768                       # number of overall hits
system.cpu.dcache.ReadReq_misses::cpu.data      9884216                       # number of ReadReq misses
system.cpu.dcache.ReadReq_misses::total       9884216                       # number of ReadReq misses
system.cpu.dcache.WriteReq_misses::cpu.data       341745                       # number of WriteReq misses
system.cpu.dcache.WriteReq_misses::total       341745                       # number of WriteReq misses
system.cpu.dcache.demand_misses::cpu.data     10225961                       # number of demand (read+write) misses
system.cpu.dcache.demand_misses::total       10225961                       # number of demand (read+write) misses
system.cpu.dcache.overall_misses::cpu.data     10225961                       # number of overall misses
system.cpu.dcache.overall_misses::total      10225961                       # number of overall misses
system.cpu.dcache.ReadReq_miss_latency::cpu.data 917711092000                       # number of ReadReq miss cycles
system.cpu.dcache.ReadReq_miss_latency::total 917711092000                       # number of ReadReq miss cycles
system.cpu.dcache.WriteReq_miss_latency::cpu.data  22419121000                       # number of WriteReq miss cycles
system.cpu.dcache.WriteReq_miss_latency::total  22419121000                       # number of WriteReq miss cycles
system.cpu.dcache.demand_miss_latency::cpu.data 940130213000                       # number of demand (read+write) miss cycles
system.cpu.dcache.demand_miss_latency::total 940130213000                       # number of demand (read+write) miss cycles
system.cpu.dcache.overall_miss_latency::cpu.data 940130213000                       # number of overall miss cycles
system.cpu.dcache.overall_miss_latency::total 940130213000                       # number of overall miss cycles
system.cpu.dcache.ReadReq_accesses::cpu.data    221299171                       # number of ReadReq accesses(hits+misses)
system.cpu.dcache.ReadReq_accesses::total    221299171                       # number of ReadReq accesses(hits+misses)
system.cpu.dcache.WriteReq_accesses::cpu.data     72478558                       # number of WriteReq accesses(hits+misses)
system.cpu.dcache.WriteReq_accesses::total     72478558                       # number of WriteReq accesses(hits+misses)
system.cpu.dcache.demand_accesses::cpu.data    293777729                       # number of demand (read+write) accesses
system.cpu.dcache.demand_accesses::total    293777729                       # number of demand (read+write) accesses
system.cpu.dcache.overall_accesses::cpu.data    293777729                       # number of overall (read+write) accesses
system.cpu.dcache.overall_accesses::total    293777729                       # number of overall (read+write) accesses
system.cpu.dcache.ReadReq_miss_rate::cpu.data     0.044664                       # miss rate for ReadReq accesses
system.cpu.dcache.ReadReq_miss_rate::total     0.044664                       # miss rate for ReadReq accesses
system.cpu.dcache.WriteReq_miss_rate::cpu.data     0.004715                       # miss rate for WriteReq accesses
system.cpu.dcache.WriteReq_miss_rate::total     0.004715                       # miss rate for WriteReq accesses
system.cpu.dcache.demand_miss_rate::cpu.data     0.034808                       # miss rate for demand accesses
system.cpu.dcache.demand_miss_rate::total     0.034808                       # miss rate for demand accesses
system.cpu.dcache.overall_miss_rate::cpu.data     0.034808                       # miss rate for overall accesses
system.cpu.dcache.overall_miss_rate::total     0.034808                       # miss rate for overall accesses
system.cpu.dcache.ReadReq_avg_miss_latency::cpu.data 92846.118701                       # average ReadReq miss latency
system.cpu.dcache.ReadReq_avg_miss_latency::total 92846.118701                       # average ReadReq miss latency
system.cpu.dcache.WriteReq_avg_miss_latency::cpu.data 65601.899077                       # average WriteReq miss latency
system.cpu.dcache.WriteReq_avg_miss_latency::total 65601.899077                       # average WriteReq miss latency
system.cpu.dcache.demand_avg_miss_latency::cpu.data 91935.634509                       # average overall miss latency
system.cpu.dcache.demand_avg_miss_latency::total 91935.634509                       # average overall miss latency
system.cpu.dcache.overall_avg_miss_latency::cpu.data 91935.634509                       # average overall miss latency
system.cpu.dcache.overall_avg_miss_latency::total 91935.634509                       # average overall miss latency
system.cpu.dcache.blocked_cycles::no_mshrs            0                       # number of cycles access was blocked
system.cpu.dcache.blocked_cycles::no_targets            0                       # number of cycles access was blocked
system.cpu.dcache.blocked::no_mshrs                 0                       # number of cycles access was blocked
system.cpu.dcache.blocked::no_targets               0                       # number of cycles access was blocked
system.cpu.dcache.avg_blocked_cycles::no_mshrs          nan                       # average number of cycles each access was blocked
system.cpu.dcache.avg_blocked_cycles::no_targets          nan                       # average number of cycles each access was blocked
system.cpu.dcache.fast_writes                       0                       # number of fast writes performed
system.cpu.dcache.cache_copies                      0                       # number of cache copies performed
system.cpu.dcache.writebacks::writebacks      1635618                       # number of writebacks
system.cpu.dcache.writebacks::total           1635618                       # number of writebacks
system.cpu.dcache.ReadReq_mshr_misses::cpu.data      9884216                       # number of ReadReq MSHR misses
system.cpu.dcache.ReadReq_mshr_misses::total      9884216                       # number of ReadReq MSHR misses
system.cpu.dcache.WriteReq_mshr_misses::cpu.data       341745                       # number of WriteReq MSHR misses
system.cpu.dcache.WriteReq_mshr_misses::total       341745                       # number of WriteReq MSHR misses
system.cpu.dcache.demand_mshr_misses::cpu.data     10225961                       # number of demand (read+write) MSHR misses
system.cpu.dcache.demand_mshr_misses::total     10225961                       # number of demand (read+write) MSHR misses
system.cpu.dcache.overall_mshr_misses::cpu.data     10225961                       # number of overall MSHR misses
system.cpu.dcache.overall_mshr_misses::total     10225961                       # number of overall MSHR misses
system.cpu.dcache.ReadReq_mshr_miss_latency::cpu.data 907826876000                       # number of ReadReq MSHR miss cycles
system.cpu.dcache.ReadReq_mshr_miss_latency::total 907826876000                       # number of ReadReq MSHR miss cycles
system.cpu.dcache.WriteReq_mshr_miss_latency::cpu.data  22077376000                       # number of WriteReq MSHR miss cycles
system.cpu.dcache.WriteReq_mshr_miss_latency::total  22077376000                       # number of WriteReq MSHR miss cycles
system.cpu.dcache.demand_mshr_miss_latency::cpu.data 929904252000                       # number of demand (read+write) MSHR miss cycles
system.cpu.dcache.demand_mshr_miss_latency::total 929904252000                       # number of demand (read+write) MSHR miss cycles
system.cpu.dcache.overall_mshr_miss_latency::cpu.data 929904252000                       # number of overall MSHR miss cycles
system.cpu.dcache.overall_mshr_miss_latency::total 929904252000                       # number of overall MSHR miss cycles
system.cpu.dcache.ReadReq_mshr_miss_rate::cpu.data     0.044664                       # mshr miss rate for ReadReq accesses
system.cpu.dcache.ReadReq_mshr_miss_rate::total     0.044664                       # mshr miss rate for ReadReq accesses
system.cpu.dcache.WriteReq_mshr_miss_rate::cpu.data     0.004715                       # mshr miss rate for WriteReq accesses
system.cpu.dcache.WriteReq_mshr_miss_rate::total     0.004715                       # mshr miss rate for WriteReq accesses
system.cpu.dcache.demand_mshr_miss_rate::cpu.data     0.034808                       # mshr miss rate for demand accesses
system.cpu.dcache.demand_mshr_miss_rate::total     0.034808                       # mshr miss rate for demand accesses
system.cpu.dcache.overall_mshr_miss_rate::cpu.data     0.034808                       # mshr miss rate for overall accesses
system.cpu.dcache.overall_mshr_miss_rate::total     0.034808                       # mshr miss rate for overall accesses
system.cpu.dcache.ReadReq_avg_mshr_miss_latency::cpu.data 91846.118701                       # average ReadReq mshr miss latency
system.cpu.dcache.ReadReq_avg_mshr_miss_latency::total 91846.118701                       # average ReadReq mshr miss latency
system.cpu.dcache.WriteReq_avg_mshr_miss_latency::cpu.data 64601.899077                       # average WriteReq mshr miss latency
system.cpu.dcache.WriteReq_avg_mshr_miss_latency::total 64601.899077                       # average WriteReq mshr miss latency
system.cpu.dcache.demand_avg_mshr_miss_latency::cpu.data 90935.634509                       # average overall mshr miss latency
system.cpu.dcache.demand_avg_mshr_miss_latency::total 90935.634509                       # average overall mshr miss latency
system.cpu.dcache.overall_avg_mshr_miss_latency::cpu.data 90935.634509                       # average overall mshr miss latency
system.cpu.dcache.overall_avg_mshr_miss_latency::total 90935.634509                       # average overall mshr miss latency
system.cpu.dcache.no_allocate_misses                0                       # Number of misses that were no-allocate
system.cpu.dtb_walker_cache.tags.replacements            0                       # number of replacements
system.cpu.dtb_walker_cache.tags.tagsinuse            0                       # Cycle average of tags in use
system.cpu.dtb_walker_cache.tags.total_refs            0                       # Total number of references to valid blocks.
system.cpu.dtb_walker_cache.tags.sampled_refs            0                       # Sample count of references to valid blocks.
system.cpu.dtb_walker_cache.tags.avg_refs          nan                       # Average number of references to valid blocks.
system.cpu.dtb_walker_cache.tags.warmup_cycle            0                       # Cycle when the warmup percentage was hit.
system.cpu.dtb_walker_cache.tags.tag_accesses            0                       # Number of tag accesses
system.cpu.dtb_walker_cache.tags.data_accesses            0                       # Number of data accesses
system.cpu.dtb_walker_cache.blocked_cycles::no_mshrs            0                       # number of cycles access was blocked
system.cpu.dtb_walker_cache.blocked_cycles::no_targets            0                       # number of cycles access was blocked
system.cpu.dtb_walker_cache.blocked::no_mshrs            0                       # number of cycles access was blocked
system.cpu.dtb_walker_cache.blocked::no_targets            0                       # number of cycles access was blocked
system.cpu.dtb_walker_cache.avg_blocked_cycles::no_mshrs          nan                       # average number of cycles each access was blocked
system.cpu.dtb_walker_cache.avg_blocked_cycles::no_targets          nan                       # average number of cycles each access was blocked
system.cpu.dtb_walker_cache.fast_writes             0                       # number of fast writes performed
system.cpu.dtb_walker_cache.cache_copies            0                       # number of cache copies performed
system.cpu.dtb_walker_cache.no_allocate_misses            0                       # Number of misses that were no-allocate
system.cpu.icache.tags.replacements                21                       # number of replacements
system.cpu.icache.tags.tagsinuse           623.469340                       # Cycle average of tags in use
system.cpu.icache.tags.total_refs           677317270                       # Total number of references to valid blocks.
system.cpu.icache.tags.sampled_refs               676                       # Sample count of references to valid blocks.
system.cpu.icache.tags.avg_refs          1001948.624260                       # Average number of references to valid blocks.
system.cpu.icache.tags.warmup_cycle                 0                       # Cycle when the warmup percentage was hit.
system.cpu.icache.tags.occ_blocks::cpu.inst   623.469340                       # Average occupied blocks per requestor
system.cpu.icache.tags.occ_percent::cpu.inst     0.304428                       # Average percentage of cache occupancy
system.cpu.icache.tags.occ_percent::total     0.304428                       # Average percentage of cache occupancy
system.cpu.icache.tags.occ_task_id_blocks::1024          655                       # Occupied blocks per task id
system.cpu.icache.tags.age_task_id_blocks_1024::4          655                       # Occupied blocks per task id
system.cpu.icache.tags.occ_task_id_percent::1024     0.319824                       # Percentage of cache occupancy per task id
system.cpu.icache.tags.tag_accesses        1354636568                       # Number of tag accesses
system.cpu.icache.tags.data_accesses       1354636568                       # Number of data accesses
system.cpu.icache.ReadReq_hits::cpu.inst    677317270                       # number of ReadReq hits
system.cpu.icache.ReadReq_hits::total       677317270                       # number of ReadReq hits
system.cpu.icache.demand_hits::cpu.inst     677317270                       # number of demand (read+write) hits
system.cpu.icache.demand_hits::total        677317270                       # number of demand (read+write) hits
system.cpu.icache.overall_hits::cpu.inst    677317270                       # number of overall hits
system.cpu.icache.overall_hits::total       677317270                       # number of overall hits
system.cpu.icache.ReadReq_misses::cpu.inst          676                       # number of ReadReq misses
system.cpu.icache.ReadReq_misses::total           676                       # number of ReadReq misses
system.cpu.icache.demand_misses::cpu.inst          676                       # number of demand (read+write) misses
system.cpu.icache.demand_misses::total            676                       # number of demand (read+write) misses
system.cpu.icache.overall_misses::cpu.inst          676                       # number of overall misses
system.cpu.icache.overall_misses::total           676                       # number of overall misses
system.cpu.icache.ReadReq_miss_latency::cpu.inst     54067000                       # number of ReadReq miss cycles
system.cpu.icache.ReadReq_miss_latency::total     54067000                       # number of ReadReq miss cycles
system.cpu.icache.demand_miss_latency::cpu.inst     54067000                       # number of demand (read+write) miss cycles
system.cpu.icache.demand_miss_latency::total     54067000                       # number of demand (read+write) miss cycles
system.cpu.icache.overall_miss_latency::cpu.inst     54067000                       # number of overall miss cycles
system.cpu.icache.overall_miss_latency::total     54067000                       # number of overall miss cycles
system.cpu.icache.ReadReq_accesses::cpu.inst    677317946                       # number of ReadReq accesses(hits+misses)
system.cpu.icache.ReadReq_accesses::total    677317946                       # number of ReadReq accesses(hits+misses)
system.cpu.icache.demand_accesses::cpu.inst    677317946                       # number of demand (read+write) accesses
system.cpu.icache.demand_accesses::total    677317946                       # number of demand (read+write) accesses
system.cpu.icache.overall_accesses::cpu.inst    677317946                       # number of overall (read+write) accesses
system.cpu.icache.overall_accesses::total    677317946                       # number of overall (read+write) accesses
system.cpu.icache.ReadReq_miss_rate::cpu.inst     0.000001                       # miss rate for ReadReq accesses
system.cpu.icache.ReadReq_miss_rate::total     0.000001                       # miss rate for ReadReq accesses
system.cpu.icache.demand_miss_rate::cpu.inst     0.000001                       # miss rate for demand accesses
system.cpu.icache.demand_miss_rate::total     0.000001                       # miss rate for demand accesses
system.cpu.icache.overall_miss_rate::cpu.inst     0.000001                       # miss rate for overall accesses
system.cpu.icache.overall_miss_rate::total     0.000001                       # miss rate for overall accesses
system.cpu.icache.ReadReq_avg_miss_latency::cpu.inst 79980.769231                       # average ReadReq miss latency
system.cpu.icache.ReadReq_avg_miss_latency::total 79980.769231                       # average ReadReq miss latency
system.cpu.icache.demand_avg_miss_latency::cpu.inst 79980.769231                       # average overall miss latency
system.cpu.icache.demand_avg_miss_latency::total 79980.769231                       # average overall miss latency
system.cpu.icache.overall_avg_miss_latency::cpu.inst 79980.769231                       # average overall miss latency
system.cpu.icache.overall_avg_miss_latency::total 79980.769231                       # average overall miss latency
system.cpu.icache.blocked_cycles::no_mshrs            0                       # number of cycles access was blocked
system.cpu.icache.blocked_cycles::no_targets            0                       # number of cycles access was blocked
system.cpu.icache.blocked::no_mshrs                 0                       # number of cycles access was blocked
system.cpu.icache.blocked::no_targets               0                       # number of cycles access was blocked
system.cpu.icache.avg_blocked_cycles::no_mshrs          nan                       # average number of cycles each access was blocked
system.cpu.icache.avg_blocked_cycles::no_targets          nan                       # average number of cycles each access was blocked
system.cpu.icache.fast_writes                       0                       # number of fast writes performed
system.cpu.icache.cache_copies                      0                       # number of cache copies performed
system.cpu.icache.writebacks::writebacks           21                       # number of writebacks
system.cpu.icache.writebacks::total                21                       # number of writebacks
system.cpu.icache.ReadReq_mshr_misses::cpu.inst          676                       # number of ReadReq MSHR misses
system.cpu.icache.ReadReq_mshr_misses::total          676                       # number of ReadReq MSHR misses
system.cpu.icache.demand_mshr_misses::cpu.inst          676                       # number of demand (read+write) MSHR misses
system.cpu.icache.demand_mshr_misses::total          676                       # number of demand (read+write) MSHR misses
system.cpu.icache.overall_mshr_misses::cpu.inst          676                       # number of overall MSHR misses
system.cpu.icache.overall_mshr_misses::total          676                       # number of overall MSHR misses
system.cpu.icache.ReadReq_mshr_miss_latency::cpu.inst     53391000                       # number of ReadReq MSHR miss cycles
system.cpu.icache.ReadReq_mshr_miss_latency::total     53391000                       # number of ReadReq MSHR miss cycles
system.cpu.icache.demand_mshr_miss_latency::cpu.inst     53391000                       # number of demand (read+write) MSHR miss cycles
system.cpu.icache.demand_mshr_miss_latency::total     53391000                       # number of demand (read+write) MSHR miss cycles
system.cpu.icache.overall_mshr_miss_latency::cpu.inst     53391000                       # number of overall MSHR miss cycles
system.cpu.icache.overall_mshr_miss_latency::total     53391000                       # number of overall MSHR miss cycles
system.cpu.icache.ReadReq_mshr_miss_rate::cpu.inst     0.000001                       # mshr miss rate for ReadReq accesses
system.cpu.icache.ReadReq_mshr_miss_rate::total     0.000001                       # mshr miss rate for ReadReq accesses
system.cpu.icache.demand_mshr_miss_rate::cpu.inst     0.000001                       # mshr miss rate for demand accesses
system.cpu.icache.demand_mshr_miss_rate::total     0.000001                       # mshr miss rate for demand accesses
system.cpu.icache.overall_mshr_miss_rate::cpu.inst     0.000001                       # mshr miss rate for overall accesses
system.cpu.icache.overall_mshr_miss_rate::total     0.000001                       # mshr miss rate for overall accesses
system.cpu.icache.ReadReq_avg_mshr_miss_latency::cpu.inst 78980.769231                       # average ReadReq mshr miss latency
system.cpu.icache.ReadReq_avg_mshr_miss_latency::total 78980.769231                       # average ReadReq mshr miss latency
system.cpu.icache.demand_avg_mshr_miss_latency::cpu.inst 78980.769231                       # average overall mshr miss latency
system.cpu.icache.demand_avg_mshr_miss_latency::total 78980.769231                       # average overall mshr miss latency
system.cpu.icache.overall_avg_mshr_miss_latency::cpu.inst 78980.769231                       # average overall mshr miss latency
system.cpu.icache.overall_avg_mshr_miss_latency::total 78980.769231                       # average overall mshr miss latency
system.cpu.icache.no_allocate_misses                0                       # Number of misses that were no-allocate
system.cpu.itb_walker_cache.tags.replacements            0                       # number of replacements
system.cpu.itb_walker_cache.tags.tagsinuse            0                       # Cycle average of tags in use
system.cpu.itb_walker_cache.tags.total_refs            0                       # Total number of references to valid blocks.
system.cpu.itb_walker_cache.tags.sampled_refs            0                       # Sample count of references to valid blocks.
system.cpu.itb_walker_cache.tags.avg_refs          nan                       # Average number of references to valid blocks.
system.cpu.itb_walker_cache.tags.warmup_cycle            0                       # Cycle when the warmup percentage was hit.
system.cpu.itb_walker_cache.tags.tag_accesses            0                       # Number of tag accesses
system.cpu.itb_walker_cache.tags.data_accesses            0                       # Number of data accesses
system.cpu.itb_walker_cache.blocked_cycles::no_mshrs            0                       # number of cycles access was blocked
system.cpu.itb_walker_cache.blocked_cycles::no_targets            0                       # number of cycles access was blocked
system.cpu.itb_walker_cache.blocked::no_mshrs            0                       # number of cycles access was blocked
system.cpu.itb_walker_cache.blocked::no_targets            0                       # number of cycles access was blocked
system.cpu.itb_walker_cache.avg_blocked_cycles::no_mshrs          nan                       # average number of cycles each access was blocked
system.cpu.itb_walker_cache.avg_blocked_cycles::no_targets          nan                       # average number of cycles each access was blocked
system.cpu.itb_walker_cache.fast_writes             0                       # number of fast writes performed
system.cpu.itb_walker_cache.cache_copies            0                       # number of cache copies performed
system.cpu.itb_walker_cache.no_allocate_misses            0                       # Number of misses that were no-allocate
system.l2.tags.replacements                  11287052                       # number of replacements
system.l2.tags.tagsinuse                   505.763869                       # Cycle average of tags in use
system.l2.tags.total_refs                      232975                       # Total number of references to valid blocks.
system.l2.tags.sampled_refs                  11287551                       # Sample count of references to valid blocks.
system.l2.tags.avg_refs                      0.020640                       # Average number of references to valid blocks.
system.l2.tags.warmup_cycle                2048628000                       # Cycle when the warmup percentage was hit.
system.l2.tags.occ_blocks::writebacks      138.646115                       # Average occupied blocks per requestor
system.l2.tags.occ_blocks::cpu.inst          0.046650                       # Average occupied blocks per requestor
system.l2.tags.occ_blocks::cpu.data        367.071104                       # Average occupied blocks per requestor
system.l2.tags.occ_percent::writebacks       0.270793                       # Average percentage of cache occupancy
system.l2.tags.occ_percent::cpu.inst         0.000091                       # Average percentage of cache occupancy
system.l2.tags.occ_percent::cpu.data         0.716936                       # Average percentage of cache occupancy
system.l2.tags.occ_percent::total            0.987820                       # Average percentage of cache occupancy
system.l2.tags.occ_task_id_blocks::1024           499                       # Occupied blocks per task id
system.l2.tags.age_task_id_blocks_1024::0            1                       # Occupied blocks per task id
system.l2.tags.age_task_id_blocks_1024::1          339                       # Occupied blocks per task id
system.l2.tags.age_task_id_blocks_1024::2          159                       # Occupied blocks per task id
system.l2.tags.occ_task_id_percent::1024     0.974609                       # Percentage of cache occupancy per task id
system.l2.tags.tag_accesses                  32079866                       # Number of tag accesses
system.l2.tags.data_accesses                 32079866                       # Number of data accesses
system.l2.WritebackDirty_hits::writebacks      1635618                       # number of WritebackDirty hits
system.l2.WritebackDirty_hits::total          1635618                       # number of WritebackDirty hits
system.l2.WritebackClean_hits::writebacks           21                       # number of WritebackClean hits
system.l2.WritebackClean_hits::total               21                       # number of WritebackClean hits
system.l2.ReadExReq_hits::cpu.data              71063                       # number of ReadExReq hits
system.l2.ReadExReq_hits::total                 71063                       # number of ReadExReq hits
system.l2.ReadSharedReq_hits::cpu.data         161917                       # number of ReadSharedReq hits
system.l2.ReadSharedReq_hits::total            161917                       # number of ReadSharedReq hits
system.l2.demand_hits::cpu.data                232980                       # number of demand (read+write) hits
system.l2.demand_hits::total                   232980                       # number of demand (read+write) hits
system.l2.overall_hits::cpu.data               232980                       # number of overall hits
system.l2.overall_hits::total                  232980                       # number of overall hits
system.l2.ReadExReq_misses::cpu.data           270682                       # number of ReadExReq misses
system.l2.ReadExReq_misses::total              270682                       # number of ReadExReq misses
system.l2.ReadCleanReq_misses::cpu.inst           676                       # number of ReadCleanReq misses
system.l2.ReadCleanReq_misses::total              676                       # number of ReadCleanReq misses
system.l2.ReadSharedReq_misses::cpu.data      9722299                       # number of ReadSharedReq misses
system.l2.ReadSharedReq_misses::total         9722299                       # number of ReadSharedReq misses
system.l2.demand_misses::cpu.inst                 676                       # number of demand (read+write) misses
system.l2.demand_misses::cpu.data             9992981                       # number of demand (read+write) misses
system.l2.demand_misses::total                9993657                       # number of demand (read+write) misses
system.l2.overall_misses::cpu.inst                676                       # number of overall misses
system.l2.overall_misses::cpu.data            9992981                       # number of overall misses
system.l2.overall_misses::total               9993657                       # number of overall misses
system.l2.ReadExReq_miss_latency::cpu.data  20818596500                       # number of ReadExReq miss cycles
system.l2.ReadExReq_miss_latency::total   20818596500                       # number of ReadExReq miss cycles
system.l2.ReadCleanReq_miss_latency::cpu.inst     52375000                       # number of ReadCleanReq miss cycles
system.l2.ReadCleanReq_miss_latency::total     52375000                       # number of ReadCleanReq miss cycles
system.l2.ReadSharedReq_miss_latency::cpu.data 891300423500                       # number of ReadSharedReq miss cycles
system.l2.ReadSharedReq_miss_latency::total 891300423500                       # number of ReadSharedReq miss cycles
system.l2.demand_miss_latency::cpu.inst      52375000                       # number of demand (read+write) miss cycles
system.l2.demand_miss_latency::cpu.data  912119020000                       # number of demand (read+write) miss cycles
system.l2.demand_miss_latency::total     912171395000                       # number of demand (read+write) miss cycles
system.l2.overall_miss_latency::cpu.inst     52375000                       # number of overall miss cycles
system.l2.overall_miss_latency::cpu.data 912119020000                       # number of overall miss cycles
system.l2.overall_miss_latency::total    912171395000                       # number of overall miss cycles
system.l2.WritebackDirty_accesses::writebacks      1635618                       # number of WritebackDirty accesses(hits+misses)
system.l2.WritebackDirty_accesses::total      1635618                       # number of WritebackDirty accesses(hits+misses)
system.l2.WritebackClean_accesses::writebacks           21                       # number of WritebackClean accesses(hits+misses)
system.l2.WritebackClean_accesses::total           21                       # number of WritebackClean accesses(hits+misses)
system.l2.ReadExReq_accesses::cpu.data         341745                       # number of ReadExReq accesses(hits+misses)
system.l2.ReadExReq_accesses::total            341745                       # number of ReadExReq accesses(hits+misses)
system.l2.ReadCleanReq_accesses::cpu.inst          676                       # number of ReadCleanReq accesses(hits+misses)
system.l2.ReadCleanReq_accesses::total            676                       # number of ReadCleanReq accesses(hits+misses)
system.l2.ReadSharedReq_accesses::cpu.data      9884216                       # number of ReadSharedReq accesses(hits+misses)
system.l2.ReadSharedReq_accesses::total       9884216                       # number of ReadSharedReq accesses(hits+misses)
system.l2.demand_accesses::cpu.inst               676                       # number of demand (read+write) accesses
system.l2.demand_accesses::cpu.data          10225961                       # number of demand (read+write) accesses
system.l2.demand_accesses::total             10226637                       # number of demand (read+write) accesses
system.l2.overall_accesses::cpu.inst              676                       # number of overall (read+write) accesses
system.l2.overall_accesses::cpu.data         10225961                       # number of overall (read+write) accesses
system.l2.overall_accesses::total            10226637                       # number of overall (read+write) accesses
system.l2.ReadExReq_miss_rate::cpu.data      0.792058                       # miss rate for ReadExReq accesses
system.l2.ReadExReq_miss_rate::total         0.792058                       # miss rate for ReadExReq accesses
system.l2.ReadCleanReq_miss_rate::cpu.inst            1                       # miss rate for ReadCleanReq accesses
system.l2.ReadCleanReq_miss_rate::total             1                       # miss rate for ReadCleanReq accesses
system.l2.ReadSharedReq_miss_rate::cpu.data     0.983619                       # miss rate for ReadSharedReq accesses
system.l2.ReadSharedReq_miss_rate::total     0.983619                       # miss rate for ReadSharedReq accesses
system.l2.demand_miss_rate::cpu.inst                1                       # miss rate for demand accesses
system.l2.demand_miss_rate::cpu.data         0.977217                       # miss rate for demand accesses
system.l2.demand_miss_rate::total            0.977218                       # miss rate for demand accesses
system.l2.overall_miss_rate::cpu.inst               1                       # miss rate for overall accesses
system.l2.overall_miss_rate::cpu.data        0.977217                       # miss rate for overall accesses
system.l2.overall_miss_rate::total           0.977218                       # miss rate for overall accesses
system.l2.ReadExReq_avg_miss_latency::cpu.data 76911.639858                       # average ReadExReq miss latency
system.l2.ReadExReq_avg_miss_latency::total 76911.639858                       # average ReadExReq miss latency
system.l2.ReadCleanReq_avg_miss_latency::cpu.inst 77477.810651                       # average ReadCleanReq miss latency
system.l2.ReadCleanReq_avg_miss_latency::total 77477.810651                       # average ReadCleanReq miss latency
system.l2.ReadSharedReq_avg_miss_latency::cpu.data 91675.891011                       # average ReadSharedReq miss latency
system.l2.ReadSharedReq_avg_miss_latency::total 91675.891011                       # average ReadSharedReq miss latency
system.l2.demand_avg_miss_latency::cpu.inst 77477.810651                       # average overall miss latency
system.l2.demand_avg_miss_latency::cpu.data 91275.968602                       # average overall miss latency
system.l2.demand_avg_miss_latency::total 91275.035255                       # average overall miss latency
system.l2.overall_avg_miss_latency::cpu.inst 77477.810651                       # average overall miss latency
system.l2.overall_avg_miss_latency::cpu.data 91275.968602                       # average overall miss latency
system.l2.overall_avg_miss_latency::total 91275.035255                       # average overall miss latency
system.l2.blocked_cycles::no_mshrs                  0                       # number of cycles access was blocked
system.l2.blocked_cycles::no_targets                0                       # number of cycles access was blocked
system.l2.blocked::no_mshrs                         0                       # number of cycles access was blocked
system.l2.blocked::no_targets                       0                       # number of cycles access was blocked
system.l2.avg_blocked_cycles::no_mshrs            nan                       # average number of cycles each access was blocked
system.l2.avg_blocked_cycles::no_targets          nan                       # average number of cycles each access was blocked
system.l2.fast_writes                               0                       # number of fast writes performed
system.l2.cache_copies                              0                       # number of cache copies performed
system.l2.writebacks::writebacks              1402599                       # number of writebacks
system.l2.writebacks::total                   1402599                       # number of writebacks
system.l2.CleanEvict_mshr_misses::writebacks      8588294                       # number of CleanEvict MSHR misses
system.l2.CleanEvict_mshr_misses::total       8588294                       # number of CleanEvict MSHR misses
system.l2.ReadExReq_mshr_misses::cpu.data       270682                       # number of ReadExReq MSHR misses
system.l2.ReadExReq_mshr_misses::total         270682                       # number of ReadExReq MSHR misses
system.l2.ReadCleanReq_mshr_misses::cpu.inst          676                       # number of ReadCleanReq MSHR misses
system.l2.ReadCleanReq_mshr_misses::total          676                       # number of ReadCleanReq MSHR misses
system.l2.ReadSharedReq_mshr_misses::cpu.data      9722299                       # number of ReadSharedReq MSHR misses
system.l2.ReadSharedReq_mshr_misses::total      9722299                       # number of ReadSharedReq MSHR misses
system.l2.demand_mshr_misses::cpu.inst            676                       # number of demand (read+write) MSHR misses
system.l2.demand_mshr_misses::cpu.data        9992981                       # number of demand (read+write) MSHR misses
system.l2.demand_mshr_misses::total           9993657                       # number of demand (read+write) MSHR misses
system.l2.overall_mshr_misses::cpu.inst           676                       # number of overall MSHR misses
system.l2.overall_mshr_misses::cpu.data       9992981                       # number of overall MSHR misses
system.l2.overall_mshr_misses::total          9993657                       # number of overall MSHR misses
system.l2.ReadExReq_mshr_miss_latency::cpu.data  18111776500                       # number of ReadExReq MSHR miss cycles
system.l2.ReadExReq_mshr_miss_latency::total  18111776500                       # number of ReadExReq MSHR miss cycles
system.l2.ReadCleanReq_mshr_miss_latency::cpu.inst     45615000                       # number of ReadCleanReq MSHR miss cycles
system.l2.ReadCleanReq_mshr_miss_latency::total     45615000                       # number of ReadCleanReq MSHR miss cycles
system.l2.ReadSharedReq_mshr_miss_latency::cpu.data 794077433500                       # number of ReadSharedReq MSHR miss cycles
system.l2.ReadSharedReq_mshr_miss_latency::total 794077433500                       # number of ReadSharedReq MSHR miss cycles
system.l2.demand_mshr_miss_latency::cpu.inst     45615000                       # number of demand (read+write) MSHR miss cycles
system.l2.demand_mshr_miss_latency::cpu.data 812189210000                       # number of demand (read+write) MSHR miss cycles
system.l2.demand_mshr_miss_latency::total 812234825000                       # number of demand (read+write) MSHR miss cycles
system.l2.overall_mshr_miss_latency::cpu.inst     45615000                       # number of overall MSHR miss cycles
system.l2.overall_mshr_miss_latency::cpu.data 812189210000                       # number of overall MSHR miss cycles
system.l2.overall_mshr_miss_latency::total 812234825000                       # number of overall MSHR miss cycles
system.l2.CleanEvict_mshr_miss_rate::writebacks          inf                       # mshr miss rate for CleanEvict accesses
system.l2.CleanEvict_mshr_miss_rate::total          inf                       # mshr miss rate for CleanEvict accesses
system.l2.ReadExReq_mshr_miss_rate::cpu.data     0.792058                       # mshr miss rate for ReadExReq accesses
system.l2.ReadExReq_mshr_miss_rate::total     0.792058                       # mshr miss rate for ReadExReq accesses
system.l2.ReadCleanReq_mshr_miss_rate::cpu.inst            1                       # mshr miss rate for ReadCleanReq accesses
system.l2.ReadCleanReq_mshr_miss_rate::total            1                       # mshr miss rate for ReadCleanReq accesses
system.l2.ReadSharedReq_mshr_miss_rate::cpu.data     0.983619                       # mshr miss rate for ReadSharedReq accesses
system.l2.ReadSharedReq_mshr_miss_rate::total     0.983619                       # mshr miss rate for ReadSharedReq accesses
system.l2.demand_mshr_miss_rate::cpu.inst            1                       # mshr miss rate for demand accesses
system.l2.demand_mshr_miss_rate::cpu.data     0.977217                       # mshr miss rate for demand accesses
system.l2.demand_mshr_miss_rate::total       0.977218                       # mshr miss rate for demand accesses
system.l2.overall_mshr_miss_rate::cpu.inst            1                       # mshr miss rate for overall accesses
system.l2.overall_mshr_miss_rate::cpu.data     0.977217                       # mshr miss rate for overall accesses
system.l2.overall_mshr_miss_rate::total      0.977218                       # mshr miss rate for overall accesses
system.l2.ReadExReq_avg_mshr_miss_latency::cpu.data 66911.639858                       # average ReadExReq mshr miss latency
system.l2.ReadExReq_avg_mshr_miss_latency::total 66911.639858                       # average ReadExReq mshr miss latency
system.l2.ReadCleanReq_avg_mshr_miss_latency::cpu.inst 67477.810651                       # average ReadCleanReq mshr miss latency
system.l2.ReadCleanReq_avg_mshr_miss_latency::total 67477.810651                       # average ReadCleanReq mshr miss latency
system.l2.ReadSharedReq_avg_mshr_miss_latency::cpu.data 81675.891011                       # average ReadSharedReq mshr miss latency
system.l2.ReadSharedReq_avg_mshr_miss_latency::total 81675.891011                       # average ReadSharedReq mshr miss latency
system.l2.demand_avg_mshr_miss_latency::cpu.inst 67477.810651                       # average overall mshr miss latency
system.l2.demand_avg_mshr_miss_latency::cpu.data 81275.968602                       # average overall mshr miss latency
system.l2.demand_avg_mshr_miss_latency::total 81275.035255                       # average overall mshr miss latency
system.l2.overall_avg_mshr_miss_latency::cpu.inst 67477.810651                       # average overall mshr miss latency
system.l2.overall_avg_mshr_miss_latency::cpu.data 81275.968602                       # average overall mshr miss latency
system.l2.overall_avg_mshr_miss_latency::total 81275.035255                       # average overall mshr miss latency
system.l2.no_allocate_misses                        0                       # Number of misses that were no-allocate
system.membus.trans_dist::ReadResp            9722975                       # Transaction distribution
system.membus.trans_dist::WritebackDirty      1402599                       # Transaction distribution
system.membus.trans_dist::CleanEvict          8588315                       # Transaction distribution
system.membus.trans_dist::ReadExReq            270682                       # Transaction distribution
system.membus.trans_dist::ReadExResp           270682                       # Transaction distribution
system.membus.trans_dist::ReadSharedReq       9722975                       # Transaction distribution
system.membus.pkt_count_system.l2.mem_side::system.mem_ctrls.port     29978228                       # Packet count per connected master and slave (bytes)
system.membus.pkt_count_system.l2.mem_side::total     29978228                       # Packet count per connected master and slave (bytes)
system.membus.pkt_count::total               29978228                       # Packet count per connected master and slave (bytes)
system.membus.pkt_size_system.l2.mem_side::system.mem_ctrls.port    729360384                       # Cumulative packet size per connected master and slave (bytes)
system.membus.pkt_size_system.l2.mem_side::total    729360384                       # Cumulative packet size per connected master and slave (bytes)
system.membus.pkt_size::total               729360384                       # Cumulative packet size per connected master and slave (bytes)
system.membus.snoops                                0                       # Total snoops (count)
system.membus.snoop_fanout::samples          19984571                       # Request fanout histogram
system.membus.snoop_fanout::mean                    0                       # Request fanout histogram
system.membus.snoop_fanout::stdev                   0                       # Request fanout histogram
system.membus.snoop_fanout::underflows              0      0.00%      0.00% # Request fanout histogram
system.membus.snoop_fanout::0                19984571    100.00%    100.00% # Request fanout histogram
system.membus.snoop_fanout::1                       0      0.00%    100.00% # Request fanout histogram
system.membus.snoop_fanout::overflows               0      0.00%    100.00% # Request fanout histogram
system.membus.snoop_fanout::min_value               0                       # Request fanout histogram
system.membus.snoop_fanout::max_value               0                       # Request fanout histogram
system.membus.snoop_fanout::total            19984571                       # Request fanout histogram
system.membus.reqLayer2.occupancy         25602032500                       # Layer occupancy (ticks)
system.membus.reqLayer2.utilization               1.3                       # Layer utilization (%)
system.membus.respLayer1.occupancy        55791709750                       # Layer occupancy (ticks)
system.membus.respLayer1.utilization              2.9                       # Layer utilization (%)
system.tol2bus.snoop_filter.tot_requests     20450571                       # Total number of requests made to the snoop filter.
system.tol2bus.snoop_filter.hit_single_requests     10223934                       # Number of requests hitting in the snoop filter with a single holder of the requested data.
system.tol2bus.snoop_filter.hit_multi_requests            1                       # Number of requests hitting in the snoop filter with multiple (>1) holders of the requested data.
system.tol2bus.snoop_filter.tot_snoops        9884432                       # Total number of snoops made to the snoop filter.
system.tol2bus.snoop_filter.hit_single_snoops      9884431                       # Number of snoops hitting in the snoop filter with a single holder of the requested data.
system.tol2bus.snoop_filter.hit_multi_snoops            1                       # Number of snoops hitting in the snoop filter with multiple (>1) holders of the requested data.
system.tol2bus.trans_dist::ReadResp           9884892                       # Transaction distribution
system.tol2bus.trans_dist::WritebackDirty      3038217                       # Transaction distribution
system.tol2bus.trans_dist::WritebackClean           21                       # Transaction distribution
system.tol2bus.trans_dist::CleanEvict        18472747                       # Transaction distribution
system.tol2bus.trans_dist::ReadExReq           341745                       # Transaction distribution
system.tol2bus.trans_dist::ReadExResp          341745                       # Transaction distribution
system.tol2bus.trans_dist::ReadCleanReq           676                       # Transaction distribution
system.tol2bus.trans_dist::ReadSharedReq      9884216                       # Transaction distribution
system.tol2bus.pkt_count_system.cpu.icache.mem_side::system.l2.cpu_side         1373                       # Packet count per connected master and slave (bytes)
system.tol2bus.pkt_count_system.cpu.dcache.mem_side::system.l2.cpu_side     30675834                       # Packet count per connected master and slave (bytes)
system.tol2bus.pkt_count::total              30677207                       # Packet count per connected master and slave (bytes)
system.tol2bus.pkt_size_system.cpu.icache.mem_side::system.l2.cpu_side        44608                       # Cumulative packet size per connected master and slave (bytes)
system.tol2bus.pkt_size_system.cpu.dcache.mem_side::system.l2.cpu_side    759141056                       # Cumulative packet size per connected master and slave (bytes)
system.tol2bus.pkt_size::total              759185664                       # Cumulative packet size per connected master and slave (bytes)
system.tol2bus.snoops                        11287052                       # Total snoops (count)
system.tol2bus.snoop_fanout::samples         21513689                       # Request fanout histogram
system.tol2bus.snoop_fanout::mean            0.459449                       # Request fanout histogram
system.tol2bus.snoop_fanout::stdev           0.498353                       # Request fanout histogram
system.tol2bus.snoop_fanout::underflows             0      0.00%      0.00% # Request fanout histogram
system.tol2bus.snoop_fanout::0               11629256     54.06%     54.06% # Request fanout histogram
system.tol2bus.snoop_fanout::1                9884432     45.94%    100.00% # Request fanout histogram
system.tol2bus.snoop_fanout::2                      1      0.00%    100.00% # Request fanout histogram
system.tol2bus.snoop_fanout::3                      0      0.00%    100.00% # Request fanout histogram
system.tol2bus.snoop_fanout::4                      0      0.00%    100.00% # Request fanout histogram
system.tol2bus.snoop_fanout::overflows              0      0.00%    100.00% # Request fanout histogram
system.tol2bus.snoop_fanout::min_value              0                       # Request fanout histogram
system.tol2bus.snoop_fanout::max_value              2                       # Request fanout histogram
system.tol2bus.snoop_fanout::total           21513689                       # Request fanout histogram
system.tol2bus.reqLayer0.occupancy        11860924500                       # Layer occupancy (ticks)
system.tol2bus.reqLayer0.utilization              0.6                       # Layer utilization (%)
system.tol2bus.respLayer0.occupancy           1014000                       # Layer occupancy (ticks)
system.tol2bus.respLayer0.utilization             0.0                       # Layer utilization (%)
system.tol2bus.respLayer1.occupancy       15338941500                       # Layer occupancy (ticks)
system.tol2bus.respLayer1.utilization             0.8                       # Layer utilization (%)

---------- End Simulation Statistics   ----------
