
---------- Begin Simulation Statistics ----------
sim_seconds                                  1.114149                       # Number of seconds simulated
sim_ticks                                1114149231500                       # Number of ticks simulated
final_tick                               1114149231500                       # Number of ticks from beginning of simulation (restored from checkpoints and never reset)
sim_freq                                 1000000000000                       # Frequency of simulated ticks
host_inst_rate                                 420642                       # Simulator instruction rate (inst/s)
host_op_rate                                   614516                       # Simulator op (including micro ops) rate (op/s)
host_tick_rate                              937314922                       # Simulator tick rate (ticks/s)
host_mem_usage                                 826236                       # Number of bytes of host memory used
host_seconds                                  1188.66                       # Real time elapsed on the host
sim_insts                                   500000001                       # Number of instructions simulated
sim_ops                                     730450447                       # Number of ops (including micro ops) simulated
system.voltage_domain.voltage                       1                       # Voltage in Volts
system.clk_domain.clock                          1000                       # Clock period in ticks
system.mem_ctrls.bytes_read::cpu.inst           63680                       # Number of bytes read from this memory
system.mem_ctrls.bytes_read::cpu.data        89558976                       # Number of bytes read from this memory
system.mem_ctrls.bytes_read::total           89622656                       # Number of bytes read from this memory
system.mem_ctrls.bytes_inst_read::cpu.inst        63680                       # Number of instructions bytes read from this memory
system.mem_ctrls.bytes_inst_read::total         63680                       # Number of instructions bytes read from this memory
system.mem_ctrls.bytes_written::writebacks     39458496                       # Number of bytes written to this memory
system.mem_ctrls.bytes_written::total        39458496                       # Number of bytes written to this memory
system.mem_ctrls.num_reads::cpu.inst              995                       # Number of read requests responded to by this memory
system.mem_ctrls.num_reads::cpu.data          1399359                       # Number of read requests responded to by this memory
system.mem_ctrls.num_reads::total             1400354                       # Number of read requests responded to by this memory
system.mem_ctrls.num_writes::writebacks        616539                       # Number of write requests responded to by this memory
system.mem_ctrls.num_writes::total             616539                       # Number of write requests responded to by this memory
system.mem_ctrls.bw_read::cpu.inst              57156                       # Total read bandwidth from this memory (bytes/s)
system.mem_ctrls.bw_read::cpu.data           80383286                       # Total read bandwidth from this memory (bytes/s)
system.mem_ctrls.bw_read::total              80440441                       # Total read bandwidth from this memory (bytes/s)
system.mem_ctrls.bw_inst_read::cpu.inst         57156                       # Instruction read bandwidth from this memory (bytes/s)
system.mem_ctrls.bw_inst_read::total            57156                       # Instruction read bandwidth from this memory (bytes/s)
system.mem_ctrls.bw_write::writebacks        35415809                       # Write bandwidth from this memory (bytes/s)
system.mem_ctrls.bw_write::total             35415809                       # Write bandwidth from this memory (bytes/s)
system.mem_ctrls.bw_total::writebacks        35415809                       # Total bandwidth to/from this memory (bytes/s)
system.mem_ctrls.bw_total::cpu.inst             57156                       # Total bandwidth to/from this memory (bytes/s)
system.mem_ctrls.bw_total::cpu.data          80383286                       # Total bandwidth to/from this memory (bytes/s)
system.mem_ctrls.bw_total::total            115856250                       # Total bandwidth to/from this memory (bytes/s)
system.mem_ctrls.readReqs                     1400354                       # Number of read requests accepted
system.mem_ctrls.writeReqs                     616539                       # Number of write requests accepted
system.mem_ctrls.readBursts                   1400354                       # Number of DRAM read bursts, including those serviced by the write queue
system.mem_ctrls.writeBursts                   616539                       # Number of DRAM write bursts, including those merged in the write queue
system.mem_ctrls.bytesReadDRAM               89530176                       # Total number of bytes read from DRAM
system.mem_ctrls.bytesReadWrQ                   92480                       # Total number of bytes read from write queue
system.mem_ctrls.bytesWritten                39456064                       # Total number of bytes written to DRAM
system.mem_ctrls.bytesReadSys                89622656                       # Total read bytes from the system interface side
system.mem_ctrls.bytesWrittenSys             39458496                       # Total written bytes from the system interface side
system.mem_ctrls.servicedByWrQ                   1445                       # Number of DRAM read bursts serviced by the write queue
system.mem_ctrls.mergedWrBursts                    13                       # Number of DRAM write bursts merged with an existing one
system.mem_ctrls.neitherReadNorWriteReqs       778445                       # Number of requests that are neither read nor write
system.mem_ctrls.perBankRdBursts::0             90012                       # Per bank write bursts
system.mem_ctrls.perBankRdBursts::1             90043                       # Per bank write bursts
system.mem_ctrls.perBankRdBursts::2             88617                       # Per bank write bursts
system.mem_ctrls.perBankRdBursts::3             86338                       # Per bank write bursts
system.mem_ctrls.perBankRdBursts::4             86270                       # Per bank write bursts
system.mem_ctrls.perBankRdBursts::5             86712                       # Per bank write bursts
system.mem_ctrls.perBankRdBursts::6             89214                       # Per bank write bursts
system.mem_ctrls.perBankRdBursts::7             85671                       # Per bank write bursts
system.mem_ctrls.perBankRdBursts::8             79698                       # Per bank write bursts
system.mem_ctrls.perBankRdBursts::9             79357                       # Per bank write bursts
system.mem_ctrls.perBankRdBursts::10            86029                       # Per bank write bursts
system.mem_ctrls.perBankRdBursts::11            89474                       # Per bank write bursts
system.mem_ctrls.perBankRdBursts::12            90021                       # Per bank write bursts
system.mem_ctrls.perBankRdBursts::13            89405                       # Per bank write bursts
system.mem_ctrls.perBankRdBursts::14            90920                       # Per bank write bursts
system.mem_ctrls.perBankRdBursts::15            91128                       # Per bank write bursts
system.mem_ctrls.perBankWrBursts::0             39347                       # Per bank write bursts
system.mem_ctrls.perBankWrBursts::1             38533                       # Per bank write bursts
system.mem_ctrls.perBankWrBursts::2             39264                       # Per bank write bursts
system.mem_ctrls.perBankWrBursts::3             37450                       # Per bank write bursts
system.mem_ctrls.perBankWrBursts::4             36354                       # Per bank write bursts
system.mem_ctrls.perBankWrBursts::5             36969                       # Per bank write bursts
system.mem_ctrls.perBankWrBursts::6             37204                       # Per bank write bursts
system.mem_ctrls.perBankWrBursts::7             38009                       # Per bank write bursts
system.mem_ctrls.perBankWrBursts::8             38469                       # Per bank write bursts
system.mem_ctrls.perBankWrBursts::9             38365                       # Per bank write bursts
system.mem_ctrls.perBankWrBursts::10            39253                       # Per bank write bursts
system.mem_ctrls.perBankWrBursts::11            39144                       # Per bank write bursts
system.mem_ctrls.perBankWrBursts::12            38446                       # Per bank write bursts
system.mem_ctrls.perBankWrBursts::13            39454                       # Per bank write bursts
system.mem_ctrls.perBankWrBursts::14            39878                       # Per bank write bursts
system.mem_ctrls.perBankWrBursts::15            40362                       # Per bank write bursts
system.mem_ctrls.numRdRetry                         0                       # Number of times read queue was full causing retry
system.mem_ctrls.numWrRetry                         0                       # Number of times write queue was full causing retry
system.mem_ctrls.totGap                  1114116476500                       # Total gap between requests
system.mem_ctrls.readPktSize::0                     0                       # Read request sizes (log2)
system.mem_ctrls.readPktSize::1                     0                       # Read request sizes (log2)
system.mem_ctrls.readPktSize::2                     0                       # Read request sizes (log2)
system.mem_ctrls.readPktSize::3                     0                       # Read request sizes (log2)
system.mem_ctrls.readPktSize::4                     0                       # Read request sizes (log2)
system.mem_ctrls.readPktSize::5                     0                       # Read request sizes (log2)
system.mem_ctrls.readPktSize::6               1400354                       # Read request sizes (log2)
system.mem_ctrls.writePktSize::0                    0                       # Write request sizes (log2)
system.mem_ctrls.writePktSize::1                    0                       # Write request sizes (log2)
system.mem_ctrls.writePktSize::2                    0                       # Write request sizes (log2)
system.mem_ctrls.writePktSize::3                    0                       # Write request sizes (log2)
system.mem_ctrls.writePktSize::4                    0                       # Write request sizes (log2)
system.mem_ctrls.writePktSize::5                    0                       # Write request sizes (log2)
system.mem_ctrls.writePktSize::6               616539                       # Write request sizes (log2)
system.mem_ctrls.rdQLenPdf::0                 1389956                       # What read queue length does an incoming req see
system.mem_ctrls.rdQLenPdf::1                    7504                       # What read queue length does an incoming req see
system.mem_ctrls.rdQLenPdf::2                     756                       # What read queue length does an incoming req see
system.mem_ctrls.rdQLenPdf::3                     693                       # What read queue length does an incoming req see
system.mem_ctrls.rdQLenPdf::4                       0                       # What read queue length does an incoming req see
system.mem_ctrls.rdQLenPdf::5                       0                       # What read queue length does an incoming req see
system.mem_ctrls.rdQLenPdf::6                       0                       # What read queue length does an incoming req see
system.mem_ctrls.rdQLenPdf::7                       0                       # What read queue length does an incoming req see
system.mem_ctrls.rdQLenPdf::8                       0                       # What read queue length does an incoming req see
system.mem_ctrls.rdQLenPdf::9                       0                       # What read queue length does an incoming req see
system.mem_ctrls.rdQLenPdf::10                      0                       # What read queue length does an incoming req see
system.mem_ctrls.rdQLenPdf::11                      0                       # What read queue length does an incoming req see
system.mem_ctrls.rdQLenPdf::12                      0                       # What read queue length does an incoming req see
system.mem_ctrls.rdQLenPdf::13                      0                       # What read queue length does an incoming req see
system.mem_ctrls.rdQLenPdf::14                      0                       # What read queue length does an incoming req see
system.mem_ctrls.rdQLenPdf::15                      0                       # What read queue length does an incoming req see
system.mem_ctrls.rdQLenPdf::16                      0                       # What read queue length does an incoming req see
system.mem_ctrls.rdQLenPdf::17                      0                       # What read queue length does an incoming req see
system.mem_ctrls.rdQLenPdf::18                      0                       # What read queue length does an incoming req see
system.mem_ctrls.rdQLenPdf::19                      0                       # What read queue length does an incoming req see
system.mem_ctrls.rdQLenPdf::20                      0                       # What read queue length does an incoming req see
system.mem_ctrls.rdQLenPdf::21                      0                       # What read queue length does an incoming req see
system.mem_ctrls.rdQLenPdf::22                      0                       # What read queue length does an incoming req see
system.mem_ctrls.rdQLenPdf::23                      0                       # What read queue length does an incoming req see
system.mem_ctrls.rdQLenPdf::24                      0                       # What read queue length does an incoming req see
system.mem_ctrls.rdQLenPdf::25                      0                       # What read queue length does an incoming req see
system.mem_ctrls.rdQLenPdf::26                      0                       # What read queue length does an incoming req see
system.mem_ctrls.rdQLenPdf::27                      0                       # What read queue length does an incoming req see
system.mem_ctrls.rdQLenPdf::28                      0                       # What read queue length does an incoming req see
system.mem_ctrls.rdQLenPdf::29                      0                       # What read queue length does an incoming req see
system.mem_ctrls.rdQLenPdf::30                      0                       # What read queue length does an incoming req see
system.mem_ctrls.rdQLenPdf::31                      0                       # What read queue length does an incoming req see
system.mem_ctrls.wrQLenPdf::0                       1                       # What write queue length does an incoming req see
system.mem_ctrls.wrQLenPdf::1                       1                       # What write queue length does an incoming req see
system.mem_ctrls.wrQLenPdf::2                       1                       # What write queue length does an incoming req see
system.mem_ctrls.wrQLenPdf::3                       1                       # What write queue length does an incoming req see
system.mem_ctrls.wrQLenPdf::4                       1                       # What write queue length does an incoming req see
system.mem_ctrls.wrQLenPdf::5                       1                       # What write queue length does an incoming req see
system.mem_ctrls.wrQLenPdf::6                       1                       # What write queue length does an incoming req see
system.mem_ctrls.wrQLenPdf::7                       1                       # What write queue length does an incoming req see
system.mem_ctrls.wrQLenPdf::8                       1                       # What write queue length does an incoming req see
system.mem_ctrls.wrQLenPdf::9                       1                       # What write queue length does an incoming req see
system.mem_ctrls.wrQLenPdf::10                      1                       # What write queue length does an incoming req see
system.mem_ctrls.wrQLenPdf::11                      1                       # What write queue length does an incoming req see
system.mem_ctrls.wrQLenPdf::12                      1                       # What write queue length does an incoming req see
system.mem_ctrls.wrQLenPdf::13                      1                       # What write queue length does an incoming req see
system.mem_ctrls.wrQLenPdf::14                      1                       # What write queue length does an incoming req see
system.mem_ctrls.wrQLenPdf::15                  20490                       # What write queue length does an incoming req see
system.mem_ctrls.wrQLenPdf::16                  22252                       # What write queue length does an incoming req see
system.mem_ctrls.wrQLenPdf::17                  34087                       # What write queue length does an incoming req see
system.mem_ctrls.wrQLenPdf::18                  35754                       # What write queue length does an incoming req see
system.mem_ctrls.wrQLenPdf::19                  35775                       # What write queue length does an incoming req see
system.mem_ctrls.wrQLenPdf::20                  35724                       # What write queue length does an incoming req see
system.mem_ctrls.wrQLenPdf::21                  35700                       # What write queue length does an incoming req see
system.mem_ctrls.wrQLenPdf::22                  35739                       # What write queue length does an incoming req see
system.mem_ctrls.wrQLenPdf::23                  35712                       # What write queue length does an incoming req see
system.mem_ctrls.wrQLenPdf::24                  35772                       # What write queue length does an incoming req see
system.mem_ctrls.wrQLenPdf::25                  36109                       # What write queue length does an incoming req see
system.mem_ctrls.wrQLenPdf::26                  36153                       # What write queue length does an incoming req see
system.mem_ctrls.wrQLenPdf::27                  37100                       # What write queue length does an incoming req see
system.mem_ctrls.wrQLenPdf::28                  37150                       # What write queue length does an incoming req see
system.mem_ctrls.wrQLenPdf::29                  35823                       # What write queue length does an incoming req see
system.mem_ctrls.wrQLenPdf::30                  35691                       # What write queue length does an incoming req see
system.mem_ctrls.wrQLenPdf::31                  35744                       # What write queue length does an incoming req see
system.mem_ctrls.wrQLenPdf::32                  35670                       # What write queue length does an incoming req see
system.mem_ctrls.wrQLenPdf::33                     63                       # What write queue length does an incoming req see
system.mem_ctrls.wrQLenPdf::34                      3                       # What write queue length does an incoming req see
system.mem_ctrls.wrQLenPdf::35                      0                       # What write queue length does an incoming req see
system.mem_ctrls.wrQLenPdf::36                      0                       # What write queue length does an incoming req see
system.mem_ctrls.wrQLenPdf::37                      0                       # What write queue length does an incoming req see
system.mem_ctrls.wrQLenPdf::38                      0                       # What write queue length does an incoming req see
system.mem_ctrls.wrQLenPdf::39                      0                       # What write queue length does an incoming req see
system.mem_ctrls.wrQLenPdf::40                      0                       # What write queue length does an incoming req see
system.mem_ctrls.wrQLenPdf::41                      0                       # What write queue length does an incoming req see
system.mem_ctrls.wrQLenPdf::42                      0                       # What write queue length does an incoming req see
system.mem_ctrls.wrQLenPdf::43                      0                       # What write queue length does an incoming req see
system.mem_ctrls.wrQLenPdf::44                      0                       # What write queue length does an incoming req see
system.mem_ctrls.wrQLenPdf::45                      0                       # What write queue length does an incoming req see
system.mem_ctrls.wrQLenPdf::46                      0                       # What write queue length does an incoming req see
system.mem_ctrls.wrQLenPdf::47                      0                       # What write queue length does an incoming req see
system.mem_ctrls.wrQLenPdf::48                      0                       # What write queue length does an incoming req see
system.mem_ctrls.wrQLenPdf::49                      0                       # What write queue length does an incoming req see
system.mem_ctrls.wrQLenPdf::50                      0                       # What write queue length does an incoming req see
system.mem_ctrls.wrQLenPdf::51                      0                       # What write queue length does an incoming req see
system.mem_ctrls.wrQLenPdf::52                      0                       # What write queue length does an incoming req see
system.mem_ctrls.wrQLenPdf::53                      0                       # What write queue length does an incoming req see
system.mem_ctrls.wrQLenPdf::54                      0                       # What write queue length does an incoming req see
system.mem_ctrls.wrQLenPdf::55                      0                       # What write queue length does an incoming req see
system.mem_ctrls.wrQLenPdf::56                      0                       # What write queue length does an incoming req see
system.mem_ctrls.wrQLenPdf::57                      0                       # What write queue length does an incoming req see
system.mem_ctrls.wrQLenPdf::58                      0                       # What write queue length does an incoming req see
system.mem_ctrls.wrQLenPdf::59                      0                       # What write queue length does an incoming req see
system.mem_ctrls.wrQLenPdf::60                      0                       # What write queue length does an incoming req see
system.mem_ctrls.wrQLenPdf::61                      0                       # What write queue length does an incoming req see
system.mem_ctrls.wrQLenPdf::62                      0                       # What write queue length does an incoming req see
system.mem_ctrls.wrQLenPdf::63                      0                       # What write queue length does an incoming req see
system.mem_ctrls.bytesPerActivate::samples      1161417                       # Bytes accessed per row activation
system.mem_ctrls.bytesPerActivate::mean    111.059370                       # Bytes accessed per row activation
system.mem_ctrls.bytesPerActivate::gmean    86.718436                       # Bytes accessed per row activation
system.mem_ctrls.bytesPerActivate::stdev   128.713273                       # Bytes accessed per row activation
system.mem_ctrls.bytesPerActivate::0-127       833802     71.79%     71.79% # Bytes accessed per row activation
system.mem_ctrls.bytesPerActivate::128-255       242331     20.87%     92.66% # Bytes accessed per row activation
system.mem_ctrls.bytesPerActivate::256-383        35721      3.08%     95.73% # Bytes accessed per row activation
system.mem_ctrls.bytesPerActivate::384-511        12643      1.09%     96.82% # Bytes accessed per row activation
system.mem_ctrls.bytesPerActivate::512-639        20569      1.77%     98.59% # Bytes accessed per row activation
system.mem_ctrls.bytesPerActivate::640-767         2623      0.23%     98.82% # Bytes accessed per row activation
system.mem_ctrls.bytesPerActivate::768-895         1882      0.16%     98.98% # Bytes accessed per row activation
system.mem_ctrls.bytesPerActivate::896-1023         1329      0.11%     99.09% # Bytes accessed per row activation
system.mem_ctrls.bytesPerActivate::1024-1151        10517      0.91%    100.00% # Bytes accessed per row activation
system.mem_ctrls.bytesPerActivate::total      1161417                       # Bytes accessed per row activation
system.mem_ctrls.rdPerTurnAround::samples        35670                       # Reads before turning the bus around for writes
system.mem_ctrls.rdPerTurnAround::mean      39.185366                       # Reads before turning the bus around for writes
system.mem_ctrls.rdPerTurnAround::stdev    203.801556                       # Reads before turning the bus around for writes
system.mem_ctrls.rdPerTurnAround::0-1023        35591     99.78%     99.78% # Reads before turning the bus around for writes
system.mem_ctrls.rdPerTurnAround::1024-2047           68      0.19%     99.97% # Reads before turning the bus around for writes
system.mem_ctrls.rdPerTurnAround::2048-3071            6      0.02%     99.99% # Reads before turning the bus around for writes
system.mem_ctrls.rdPerTurnAround::3072-4095            1      0.00%     99.99% # Reads before turning the bus around for writes
system.mem_ctrls.rdPerTurnAround::4096-5119            1      0.00%     99.99% # Reads before turning the bus around for writes
system.mem_ctrls.rdPerTurnAround::5120-6143            1      0.00%     99.99% # Reads before turning the bus around for writes
system.mem_ctrls.rdPerTurnAround::8192-9215            1      0.00%    100.00% # Reads before turning the bus around for writes
system.mem_ctrls.rdPerTurnAround::30720-31743            1      0.00%    100.00% # Reads before turning the bus around for writes
system.mem_ctrls.rdPerTurnAround::total         35670                       # Reads before turning the bus around for writes
system.mem_ctrls.wrPerTurnAround::samples        35670                       # Writes before turning the bus around for reads
system.mem_ctrls.wrPerTurnAround::mean      17.283459                       # Writes before turning the bus around for reads
system.mem_ctrls.wrPerTurnAround::gmean     17.250771                       # Writes before turning the bus around for reads
system.mem_ctrls.wrPerTurnAround::stdev      1.059382                       # Writes before turning the bus around for reads
system.mem_ctrls.wrPerTurnAround::16            13334     37.38%     37.38% # Writes before turning the bus around for reads
system.mem_ctrls.wrPerTurnAround::17             1747      4.90%     42.28% # Writes before turning the bus around for reads
system.mem_ctrls.wrPerTurnAround::18            17896     50.17%     92.45% # Writes before turning the bus around for reads
system.mem_ctrls.wrPerTurnAround::19             2559      7.17%     99.62% # Writes before turning the bus around for reads
system.mem_ctrls.wrPerTurnAround::20              110      0.31%     99.93% # Writes before turning the bus around for reads
system.mem_ctrls.wrPerTurnAround::21               22      0.06%     99.99% # Writes before turning the bus around for reads
system.mem_ctrls.wrPerTurnAround::22                1      0.00%    100.00% # Writes before turning the bus around for reads
system.mem_ctrls.wrPerTurnAround::25                1      0.00%    100.00% # Writes before turning the bus around for reads
system.mem_ctrls.wrPerTurnAround::total         35670                       # Writes before turning the bus around for reads
system.mem_ctrls.totQLat                  22397016000                       # Total ticks spent queuing
system.mem_ctrls.totMemAccLat             48626559750                       # Total ticks spent from burst creation until serviced by the DRAM
system.mem_ctrls.totBusLat                 6994545000                       # Total ticks spent in databus transfers
system.mem_ctrls.avgQLat                     16010.35                       # Average queueing delay per DRAM burst
system.mem_ctrls.avgBusLat                    5000.00                       # Average bus latency per DRAM burst
system.mem_ctrls.avgMemAccLat                34760.35                       # Average memory access latency per DRAM burst
system.mem_ctrls.avgRdBW                        80.36                       # Average DRAM read bandwidth in MiByte/s
system.mem_ctrls.avgWrBW                        35.41                       # Average achieved write bandwidth in MiByte/s
system.mem_ctrls.avgRdBWSys                     80.44                       # Average system read bandwidth in MiByte/s
system.mem_ctrls.avgWrBWSys                     35.42                       # Average system write bandwidth in MiByte/s
system.mem_ctrls.peakBW                      12800.00                       # Theoretical peak bandwidth in MiByte/s
system.mem_ctrls.busUtil                         0.90                       # Data bus utilization in percentage
system.mem_ctrls.busUtilRead                     0.63                       # Data bus utilization in percentage for reads
system.mem_ctrls.busUtilWrite                    0.28                       # Data bus utilization in percentage for writes
system.mem_ctrls.avgRdQLen                       1.00                       # Average read queue length when enqueuing
system.mem_ctrls.avgWrQLen                      23.38                       # Average write queue length when enqueuing
system.mem_ctrls.readRowHits                   603639                       # Number of row buffer hits during reads
system.mem_ctrls.writeRowHits                  250354                       # Number of row buffer hits during writes
system.mem_ctrls.readRowHitRate                 43.15                       # Row buffer hit rate for reads
system.mem_ctrls.writeRowHitRate                40.61                       # Row buffer hit rate for writes
system.mem_ctrls.avgGap                     552392.46                       # Average gap between requests
system.mem_ctrls.pageHitRate                    42.37                       # Row buffer hit rate, read and write combined
system.mem_ctrls_0.actEnergy               4359874680                       # Energy for activate commands per rank (pJ)
system.mem_ctrls_0.preEnergy               2378899875                       # Energy for precharge commands per rank (pJ)
system.mem_ctrls_0.readEnergy              5482440600                       # Energy for read commands per rank (pJ)
system.mem_ctrls_0.writeEnergy             1964282400                       # Energy for write commands per rank (pJ)
system.mem_ctrls_0.refreshEnergy          72770358960                       # Energy for refresh commands per rank (pJ)
system.mem_ctrls_0.actBackEnergy         329298644115                       # Energy for active background per rank (pJ)
system.mem_ctrls_0.preBackEnergy         379627067250                       # Energy for precharge background per rank (pJ)
system.mem_ctrls_0.totalEnergy           795881567880                       # Total energy per rank (pJ)
system.mem_ctrls_0.averagePower            714.344472                       # Core power per rank (mW)
system.mem_ctrls_0.memoryStateTime::IDLE 629595931000                       # Time in different power states
system.mem_ctrls_0.memoryStateTime::REF   37203660000                       # Time in different power states
system.mem_ctrls_0.memoryStateTime::PRE_PDN            0                       # Time in different power states
system.mem_ctrls_0.memoryStateTime::ACT  447342967750                       # Time in different power states
system.mem_ctrls_0.memoryStateTime::ACT_PDN            0                       # Time in different power states
system.mem_ctrls_1.actEnergy               4420437840                       # Energy for activate commands per rank (pJ)
system.mem_ctrls_1.preEnergy               2411945250                       # Energy for precharge commands per rank (pJ)
system.mem_ctrls_1.readEnergy              5429049600                       # Energy for read commands per rank (pJ)
system.mem_ctrls_1.writeEnergy             2030644080                       # Energy for write commands per rank (pJ)
system.mem_ctrls_1.refreshEnergy          72770358960                       # Energy for refresh commands per rank (pJ)
system.mem_ctrls_1.actBackEnergy         329615205300                       # Energy for active background per rank (pJ)
system.mem_ctrls_1.preBackEnergy         379349382000                       # Energy for precharge background per rank (pJ)
system.mem_ctrls_1.totalEnergy           796027023030                       # Total energy per rank (pJ)
system.mem_ctrls_1.averagePower            714.475025                       # Core power per rank (mW)
system.mem_ctrls_1.memoryStateTime::IDLE 629112740500                       # Time in different power states
system.mem_ctrls_1.memoryStateTime::REF   37203660000                       # Time in different power states
system.mem_ctrls_1.memoryStateTime::PRE_PDN            0                       # Time in different power states
system.mem_ctrls_1.memoryStateTime::ACT  447826158250                       # Time in different power states
system.mem_ctrls_1.memoryStateTime::ACT_PDN            0                       # Time in different power states
system.cpu_voltage_domain.voltage                   1                       # Voltage in Volts
system.cpu_clk_domain.clock                       500                       # Clock period in ticks
system.cpu.apic_clk_domain.clock                 8000                       # Clock period in ticks
system.cpu.workload.num_syscalls                   86                       # Number of system calls
system.cpu.numCycles                       2228298463                       # number of cpu cycles simulated
system.cpu.numWorkItemsStarted                      0                       # number of work items this cpu started
system.cpu.numWorkItemsCompleted                    0                       # number of work items this cpu completed
system.cpu.committedInsts                   500000001                       # Number of instructions committed
system.cpu.committedOps                     730450447                       # Number of ops (including micro ops) committed
system.cpu.num_int_alu_accesses             729688907                       # Number of integer alu accesses
system.cpu.num_fp_alu_accesses                    663                       # Number of float alu accesses
system.cpu.num_func_calls                     1453961                       # number of times a function call or return occured
system.cpu.num_conditional_control_insts     31770496                       # number of instructions that are conditional controls
system.cpu.num_int_insts                    729688907                       # number of integer instructions
system.cpu.num_fp_insts                           663                       # number of float instructions
system.cpu.num_int_register_reads          1698743410                       # number of times the integer registers were read
system.cpu.num_int_register_writes          621892952                       # number of times the integer registers were written
system.cpu.num_fp_register_reads                 1009                       # number of times the floating registers were read
system.cpu.num_fp_register_writes                 429                       # number of times the floating registers were written
system.cpu.num_cc_register_reads            180840558                       # number of times the CC registers were read
system.cpu.num_cc_register_writes           276245127                       # number of times the CC registers were written
system.cpu.num_mem_refs                     295985459                       # number of memory refs
system.cpu.num_load_insts                   225946750                       # Number of load instructions
system.cpu.num_store_insts                   70038709                       # Number of store instructions
system.cpu.num_idle_cycles                          0                       # Number of idle cycles
system.cpu.num_busy_cycles                 2228298463                       # Number of busy cycles
system.cpu.not_idle_fraction                        1                       # Percentage of non-idle cycles
system.cpu.idle_fraction                            0                       # Percentage of idle cycles
system.cpu.Branches                          37843296                       # Number of branches fetched
system.cpu.op_class::No_OpClass                 94739      0.01%      0.01% # Class of executed instruction
system.cpu.op_class::IntAlu                 434349070     59.46%     59.48% # Class of executed instruction
system.cpu.op_class::IntMult                    20662      0.00%     59.48% # Class of executed instruction
system.cpu.op_class::IntDiv                       119      0.00%     59.48% # Class of executed instruction
system.cpu.op_class::FloatAdd                     398      0.00%     59.48% # Class of executed instruction
system.cpu.op_class::FloatCmp                       0      0.00%     59.48% # Class of executed instruction
system.cpu.op_class::FloatCvt                       0      0.00%     59.48% # Class of executed instruction
system.cpu.op_class::FloatMult                      0      0.00%     59.48% # Class of executed instruction
system.cpu.op_class::FloatDiv                       0      0.00%     59.48% # Class of executed instruction
system.cpu.op_class::FloatSqrt                      0      0.00%     59.48% # Class of executed instruction
system.cpu.op_class::SimdAdd                        0      0.00%     59.48% # Class of executed instruction
system.cpu.op_class::SimdAddAcc                     0      0.00%     59.48% # Class of executed instruction
system.cpu.op_class::SimdAlu                        0      0.00%     59.48% # Class of executed instruction
system.cpu.op_class::SimdCmp                        0      0.00%     59.48% # Class of executed instruction
system.cpu.op_class::SimdCvt                        0      0.00%     59.48% # Class of executed instruction
system.cpu.op_class::SimdMisc                       0      0.00%     59.48% # Class of executed instruction
system.cpu.op_class::SimdMult                       0      0.00%     59.48% # Class of executed instruction
system.cpu.op_class::SimdMultAcc                    0      0.00%     59.48% # Class of executed instruction
system.cpu.op_class::SimdShift                      0      0.00%     59.48% # Class of executed instruction
system.cpu.op_class::SimdShiftAcc                   0      0.00%     59.48% # Class of executed instruction
system.cpu.op_class::SimdSqrt                       0      0.00%     59.48% # Class of executed instruction
system.cpu.op_class::SimdFloatAdd                   0      0.00%     59.48% # Class of executed instruction
system.cpu.op_class::SimdFloatAlu                   0      0.00%     59.48% # Class of executed instruction
system.cpu.op_class::SimdFloatCmp                   0      0.00%     59.48% # Class of executed instruction
system.cpu.op_class::SimdFloatCvt                   0      0.00%     59.48% # Class of executed instruction
system.cpu.op_class::SimdFloatDiv                   0      0.00%     59.48% # Class of executed instruction
system.cpu.op_class::SimdFloatMisc                  0      0.00%     59.48% # Class of executed instruction
system.cpu.op_class::SimdFloatMult                  0      0.00%     59.48% # Class of executed instruction
system.cpu.op_class::SimdFloatMultAcc               0      0.00%     59.48% # Class of executed instruction
system.cpu.op_class::SimdFloatSqrt                  0      0.00%     59.48% # Class of executed instruction
system.cpu.op_class::MemRead                225946750     30.93%     90.41% # Class of executed instruction
system.cpu.op_class::MemWrite                70038709      9.59%    100.00% # Class of executed instruction
system.cpu.op_class::IprAccess                      0      0.00%    100.00% # Class of executed instruction
system.cpu.op_class::InstPrefetch                   0      0.00%    100.00% # Class of executed instruction
system.cpu.op_class::total                  730450447                       # Class of executed instruction
system.cpu.dcache.tags.replacements           2347461                       # number of replacements
system.cpu.dcache.tags.tagsinuse          1021.501950                       # Cycle average of tags in use
system.cpu.dcache.tags.total_refs           293636982                       # Total number of references to valid blocks.
system.cpu.dcache.tags.sampled_refs           2348485                       # Sample count of references to valid blocks.
system.cpu.dcache.tags.avg_refs            125.032513                       # Average number of references to valid blocks.
system.cpu.dcache.tags.warmup_cycle        3495055500                       # Cycle when the warmup percentage was hit.
system.cpu.dcache.tags.occ_blocks::cpu.data  1021.501950                       # Average occupied blocks per requestor
system.cpu.dcache.tags.occ_percent::cpu.data     0.997560                       # Average percentage of cache occupancy
system.cpu.dcache.tags.occ_percent::total     0.997560                       # Average percentage of cache occupancy
system.cpu.dcache.tags.occ_task_id_blocks::1024         1024                       # Occupied blocks per task id
system.cpu.dcache.tags.age_task_id_blocks_1024::1            2                       # Occupied blocks per task id
system.cpu.dcache.tags.age_task_id_blocks_1024::2           16                       # Occupied blocks per task id
system.cpu.dcache.tags.age_task_id_blocks_1024::3          877                       # Occupied blocks per task id
system.cpu.dcache.tags.age_task_id_blocks_1024::4          129                       # Occupied blocks per task id
system.cpu.dcache.tags.occ_task_id_percent::1024            1                       # Percentage of cache occupancy per task id
system.cpu.dcache.tags.tag_accesses        1186290353                       # Number of tag accesses
system.cpu.dcache.tags.data_accesses       1186290353                       # Number of data accesses
system.cpu.dcache.ReadReq_hits::cpu.data    224233643                       # number of ReadReq hits
system.cpu.dcache.ReadReq_hits::total       224233643                       # number of ReadReq hits
system.cpu.dcache.WriteReq_hits::cpu.data     69403339                       # number of WriteReq hits
system.cpu.dcache.WriteReq_hits::total       69403339                       # number of WriteReq hits
system.cpu.dcache.demand_hits::cpu.data     293636982                       # number of demand (read+write) hits
system.cpu.dcache.demand_hits::total        293636982                       # number of demand (read+write) hits
system.cpu.dcache.overall_hits::cpu.data    293636982                       # number of overall hits
system.cpu.dcache.overall_hits::total       293636982                       # number of overall hits
system.cpu.dcache.ReadReq_misses::cpu.data      1696730                       # number of ReadReq misses
system.cpu.dcache.ReadReq_misses::total       1696730                       # number of ReadReq misses
system.cpu.dcache.WriteReq_misses::cpu.data       635371                       # number of WriteReq misses
system.cpu.dcache.WriteReq_misses::total       635371                       # number of WriteReq misses
system.cpu.dcache.SoftPFReq_misses::cpu.data        16384                       # number of SoftPFReq misses
system.cpu.dcache.SoftPFReq_misses::total        16384                       # number of SoftPFReq misses
system.cpu.dcache.demand_misses::cpu.data      2332101                       # number of demand (read+write) misses
system.cpu.dcache.demand_misses::total        2332101                       # number of demand (read+write) misses
system.cpu.dcache.overall_misses::cpu.data      2348485                       # number of overall misses
system.cpu.dcache.overall_misses::total       2348485                       # number of overall misses
system.cpu.dcache.ReadReq_miss_latency::cpu.data  87088725500                       # number of ReadReq miss cycles
system.cpu.dcache.ReadReq_miss_latency::total  87088725500                       # number of ReadReq miss cycles
system.cpu.dcache.WriteReq_miss_latency::cpu.data  45773546500                       # number of WriteReq miss cycles
system.cpu.dcache.WriteReq_miss_latency::total  45773546500                       # number of WriteReq miss cycles
system.cpu.dcache.demand_miss_latency::cpu.data 132862272000                       # number of demand (read+write) miss cycles
system.cpu.dcache.demand_miss_latency::total 132862272000                       # number of demand (read+write) miss cycles
system.cpu.dcache.overall_miss_latency::cpu.data 132862272000                       # number of overall miss cycles
system.cpu.dcache.overall_miss_latency::total 132862272000                       # number of overall miss cycles
system.cpu.dcache.ReadReq_accesses::cpu.data    225930373                       # number of ReadReq accesses(hits+misses)
system.cpu.dcache.ReadReq_accesses::total    225930373                       # number of ReadReq accesses(hits+misses)
system.cpu.dcache.WriteReq_accesses::cpu.data     70038710                       # number of WriteReq accesses(hits+misses)
system.cpu.dcache.WriteReq_accesses::total     70038710                       # number of WriteReq accesses(hits+misses)
system.cpu.dcache.SoftPFReq_accesses::cpu.data        16384                       # number of SoftPFReq accesses(hits+misses)
system.cpu.dcache.SoftPFReq_accesses::total        16384                       # number of SoftPFReq accesses(hits+misses)
system.cpu.dcache.demand_accesses::cpu.data    295969083                       # number of demand (read+write) accesses
system.cpu.dcache.demand_accesses::total    295969083                       # number of demand (read+write) accesses
system.cpu.dcache.overall_accesses::cpu.data    295985467                       # number of overall (read+write) accesses
system.cpu.dcache.overall_accesses::total    295985467                       # number of overall (read+write) accesses
system.cpu.dcache.ReadReq_miss_rate::cpu.data     0.007510                       # miss rate for ReadReq accesses
system.cpu.dcache.ReadReq_miss_rate::total     0.007510                       # miss rate for ReadReq accesses
system.cpu.dcache.WriteReq_miss_rate::cpu.data     0.009072                       # miss rate for WriteReq accesses
system.cpu.dcache.WriteReq_miss_rate::total     0.009072                       # miss rate for WriteReq accesses
system.cpu.dcache.SoftPFReq_miss_rate::cpu.data            1                       # miss rate for SoftPFReq accesses
system.cpu.dcache.SoftPFReq_miss_rate::total            1                       # miss rate for SoftPFReq accesses
system.cpu.dcache.demand_miss_rate::cpu.data     0.007880                       # miss rate for demand accesses
system.cpu.dcache.demand_miss_rate::total     0.007880                       # miss rate for demand accesses
system.cpu.dcache.overall_miss_rate::cpu.data     0.007934                       # miss rate for overall accesses
system.cpu.dcache.overall_miss_rate::total     0.007934                       # miss rate for overall accesses
system.cpu.dcache.ReadReq_avg_miss_latency::cpu.data 51327.391807                       # average ReadReq miss latency
system.cpu.dcache.ReadReq_avg_miss_latency::total 51327.391807                       # average ReadReq miss latency
system.cpu.dcache.WriteReq_avg_miss_latency::cpu.data 72042.234380                       # average WriteReq miss latency
system.cpu.dcache.WriteReq_avg_miss_latency::total 72042.234380                       # average WriteReq miss latency
system.cpu.dcache.demand_avg_miss_latency::cpu.data 56971.062574                       # average overall miss latency
system.cpu.dcache.demand_avg_miss_latency::total 56971.062574                       # average overall miss latency
system.cpu.dcache.overall_avg_miss_latency::cpu.data 56573.608944                       # average overall miss latency
system.cpu.dcache.overall_avg_miss_latency::total 56573.608944                       # average overall miss latency
system.cpu.dcache.blocked_cycles::no_mshrs       331259                       # number of cycles access was blocked
system.cpu.dcache.blocked_cycles::no_targets            0                       # number of cycles access was blocked
system.cpu.dcache.blocked::no_mshrs              5218                       # number of cycles access was blocked
system.cpu.dcache.blocked::no_targets               0                       # number of cycles access was blocked
system.cpu.dcache.avg_blocked_cycles::no_mshrs    63.483902                       # average number of cycles each access was blocked
system.cpu.dcache.avg_blocked_cycles::no_targets          nan                       # average number of cycles each access was blocked
system.cpu.dcache.fast_writes                       0                       # number of fast writes performed
system.cpu.dcache.cache_copies                      0                       # number of cache copies performed
system.cpu.dcache.writebacks::writebacks      1007462                       # number of writebacks
system.cpu.dcache.writebacks::total           1007462                       # number of writebacks
system.cpu.dcache.ReadReq_mshr_misses::cpu.data      1696730                       # number of ReadReq MSHR misses
system.cpu.dcache.ReadReq_mshr_misses::total      1696730                       # number of ReadReq MSHR misses
system.cpu.dcache.WriteReq_mshr_misses::cpu.data       635371                       # number of WriteReq MSHR misses
system.cpu.dcache.WriteReq_mshr_misses::total       635371                       # number of WriteReq MSHR misses
system.cpu.dcache.SoftPFReq_mshr_misses::cpu.data        16384                       # number of SoftPFReq MSHR misses
system.cpu.dcache.SoftPFReq_mshr_misses::total        16384                       # number of SoftPFReq MSHR misses
system.cpu.dcache.demand_mshr_misses::cpu.data      2332101                       # number of demand (read+write) MSHR misses
system.cpu.dcache.demand_mshr_misses::total      2332101                       # number of demand (read+write) MSHR misses
system.cpu.dcache.overall_mshr_misses::cpu.data      2348485                       # number of overall MSHR misses
system.cpu.dcache.overall_mshr_misses::total      2348485                       # number of overall MSHR misses
system.cpu.dcache.ReadReq_mshr_miss_latency::cpu.data  85391995500                       # number of ReadReq MSHR miss cycles
system.cpu.dcache.ReadReq_mshr_miss_latency::total  85391995500                       # number of ReadReq MSHR miss cycles
system.cpu.dcache.WriteReq_mshr_miss_latency::cpu.data  45138175500                       # number of WriteReq MSHR miss cycles
system.cpu.dcache.WriteReq_mshr_miss_latency::total  45138175500                       # number of WriteReq MSHR miss cycles
system.cpu.dcache.SoftPFReq_mshr_miss_latency::cpu.data   1436494988                       # number of SoftPFReq MSHR miss cycles
system.cpu.dcache.SoftPFReq_mshr_miss_latency::total   1436494988                       # number of SoftPFReq MSHR miss cycles
system.cpu.dcache.demand_mshr_miss_latency::cpu.data 130530171000                       # number of demand (read+write) MSHR miss cycles
system.cpu.dcache.demand_mshr_miss_latency::total 130530171000                       # number of demand (read+write) MSHR miss cycles
system.cpu.dcache.overall_mshr_miss_latency::cpu.data 131966665988                       # number of overall MSHR miss cycles
system.cpu.dcache.overall_mshr_miss_latency::total 131966665988                       # number of overall MSHR miss cycles
system.cpu.dcache.ReadReq_mshr_miss_rate::cpu.data     0.007510                       # mshr miss rate for ReadReq accesses
system.cpu.dcache.ReadReq_mshr_miss_rate::total     0.007510                       # mshr miss rate for ReadReq accesses
system.cpu.dcache.WriteReq_mshr_miss_rate::cpu.data     0.009072                       # mshr miss rate for WriteReq accesses
system.cpu.dcache.WriteReq_mshr_miss_rate::total     0.009072                       # mshr miss rate for WriteReq accesses
system.cpu.dcache.SoftPFReq_mshr_miss_rate::cpu.data            1                       # mshr miss rate for SoftPFReq accesses
system.cpu.dcache.SoftPFReq_mshr_miss_rate::total            1                       # mshr miss rate for SoftPFReq accesses
system.cpu.dcache.demand_mshr_miss_rate::cpu.data     0.007880                       # mshr miss rate for demand accesses
system.cpu.dcache.demand_mshr_miss_rate::total     0.007880                       # mshr miss rate for demand accesses
system.cpu.dcache.overall_mshr_miss_rate::cpu.data     0.007934                       # mshr miss rate for overall accesses
system.cpu.dcache.overall_mshr_miss_rate::total     0.007934                       # mshr miss rate for overall accesses
system.cpu.dcache.ReadReq_avg_mshr_miss_latency::cpu.data 50327.391807                       # average ReadReq mshr miss latency
system.cpu.dcache.ReadReq_avg_mshr_miss_latency::total 50327.391807                       # average ReadReq mshr miss latency
system.cpu.dcache.WriteReq_avg_mshr_miss_latency::cpu.data 71042.234380                       # average WriteReq mshr miss latency
system.cpu.dcache.WriteReq_avg_mshr_miss_latency::total 71042.234380                       # average WriteReq mshr miss latency
system.cpu.dcache.SoftPFReq_avg_mshr_miss_latency::cpu.data 87676.696045                       # average SoftPFReq mshr miss latency
system.cpu.dcache.SoftPFReq_avg_mshr_miss_latency::total 87676.696045                       # average SoftPFReq mshr miss latency
system.cpu.dcache.demand_avg_mshr_miss_latency::cpu.data 55971.062574                       # average overall mshr miss latency
system.cpu.dcache.demand_avg_mshr_miss_latency::total 55971.062574                       # average overall mshr miss latency
system.cpu.dcache.overall_avg_mshr_miss_latency::cpu.data 56192.254150                       # average overall mshr miss latency
system.cpu.dcache.overall_avg_mshr_miss_latency::total 56192.254150                       # average overall mshr miss latency
system.cpu.dcache.no_allocate_misses                0                       # Number of misses that were no-allocate
system.cpu.dtb_walker_cache.tags.replacements            0                       # number of replacements
system.cpu.dtb_walker_cache.tags.tagsinuse            0                       # Cycle average of tags in use
system.cpu.dtb_walker_cache.tags.total_refs            0                       # Total number of references to valid blocks.
system.cpu.dtb_walker_cache.tags.sampled_refs            0                       # Sample count of references to valid blocks.
system.cpu.dtb_walker_cache.tags.avg_refs          nan                       # Average number of references to valid blocks.
system.cpu.dtb_walker_cache.tags.warmup_cycle            0                       # Cycle when the warmup percentage was hit.
system.cpu.dtb_walker_cache.tags.tag_accesses            0                       # Number of tag accesses
system.cpu.dtb_walker_cache.tags.data_accesses            0                       # Number of data accesses
system.cpu.dtb_walker_cache.blocked_cycles::no_mshrs            0                       # number of cycles access was blocked
system.cpu.dtb_walker_cache.blocked_cycles::no_targets            0                       # number of cycles access was blocked
system.cpu.dtb_walker_cache.blocked::no_mshrs            0                       # number of cycles access was blocked
system.cpu.dtb_walker_cache.blocked::no_targets            0                       # number of cycles access was blocked
system.cpu.dtb_walker_cache.avg_blocked_cycles::no_mshrs          nan                       # average number of cycles each access was blocked
system.cpu.dtb_walker_cache.avg_blocked_cycles::no_targets          nan                       # average number of cycles each access was blocked
system.cpu.dtb_walker_cache.fast_writes             0                       # number of fast writes performed
system.cpu.dtb_walker_cache.cache_copies            0                       # number of cache copies performed
system.cpu.dtb_walker_cache.no_allocate_misses            0                       # Number of misses that were no-allocate
system.cpu.icache.tags.replacements               133                       # number of replacements
system.cpu.icache.tags.tagsinuse           645.840367                       # Cycle average of tags in use
system.cpu.icache.tags.total_refs           687396867                       # Total number of references to valid blocks.
system.cpu.icache.tags.sampled_refs               996                       # Sample count of references to valid blocks.
system.cpu.icache.tags.avg_refs          690157.496988                       # Average number of references to valid blocks.
system.cpu.icache.tags.warmup_cycle                 0                       # Cycle when the warmup percentage was hit.
system.cpu.icache.tags.occ_blocks::cpu.inst   645.840367                       # Average occupied blocks per requestor
system.cpu.icache.tags.occ_percent::cpu.inst     0.630703                       # Average percentage of cache occupancy
system.cpu.icache.tags.occ_percent::total     0.630703                       # Average percentage of cache occupancy
system.cpu.icache.tags.occ_task_id_blocks::1024          863                       # Occupied blocks per task id
system.cpu.icache.tags.age_task_id_blocks_1024::1            7                       # Occupied blocks per task id
system.cpu.icache.tags.age_task_id_blocks_1024::3           25                       # Occupied blocks per task id
system.cpu.icache.tags.age_task_id_blocks_1024::4          831                       # Occupied blocks per task id
system.cpu.icache.tags.occ_task_id_percent::1024     0.842773                       # Percentage of cache occupancy per task id
system.cpu.icache.tags.tag_accesses        2749592448                       # Number of tag accesses
system.cpu.icache.tags.data_accesses       2749592448                       # Number of data accesses
system.cpu.icache.ReadReq_hits::cpu.inst    687396867                       # number of ReadReq hits
system.cpu.icache.ReadReq_hits::total       687396867                       # number of ReadReq hits
system.cpu.icache.demand_hits::cpu.inst     687396867                       # number of demand (read+write) hits
system.cpu.icache.demand_hits::total        687396867                       # number of demand (read+write) hits
system.cpu.icache.overall_hits::cpu.inst    687396867                       # number of overall hits
system.cpu.icache.overall_hits::total       687396867                       # number of overall hits
system.cpu.icache.ReadReq_misses::cpu.inst          996                       # number of ReadReq misses
system.cpu.icache.ReadReq_misses::total           996                       # number of ReadReq misses
system.cpu.icache.demand_misses::cpu.inst          996                       # number of demand (read+write) misses
system.cpu.icache.demand_misses::total            996                       # number of demand (read+write) misses
system.cpu.icache.overall_misses::cpu.inst          996                       # number of overall misses
system.cpu.icache.overall_misses::total           996                       # number of overall misses
system.cpu.icache.ReadReq_miss_latency::cpu.inst     78723500                       # number of ReadReq miss cycles
system.cpu.icache.ReadReq_miss_latency::total     78723500                       # number of ReadReq miss cycles
system.cpu.icache.demand_miss_latency::cpu.inst     78723500                       # number of demand (read+write) miss cycles
system.cpu.icache.demand_miss_latency::total     78723500                       # number of demand (read+write) miss cycles
system.cpu.icache.overall_miss_latency::cpu.inst     78723500                       # number of overall miss cycles
system.cpu.icache.overall_miss_latency::total     78723500                       # number of overall miss cycles
system.cpu.icache.ReadReq_accesses::cpu.inst    687397863                       # number of ReadReq accesses(hits+misses)
system.cpu.icache.ReadReq_accesses::total    687397863                       # number of ReadReq accesses(hits+misses)
system.cpu.icache.demand_accesses::cpu.inst    687397863                       # number of demand (read+write) accesses
system.cpu.icache.demand_accesses::total    687397863                       # number of demand (read+write) accesses
system.cpu.icache.overall_accesses::cpu.inst    687397863                       # number of overall (read+write) accesses
system.cpu.icache.overall_accesses::total    687397863                       # number of overall (read+write) accesses
system.cpu.icache.ReadReq_miss_rate::cpu.inst     0.000001                       # miss rate for ReadReq accesses
system.cpu.icache.ReadReq_miss_rate::total     0.000001                       # miss rate for ReadReq accesses
system.cpu.icache.demand_miss_rate::cpu.inst     0.000001                       # miss rate for demand accesses
system.cpu.icache.demand_miss_rate::total     0.000001                       # miss rate for demand accesses
system.cpu.icache.overall_miss_rate::cpu.inst     0.000001                       # miss rate for overall accesses
system.cpu.icache.overall_miss_rate::total     0.000001                       # miss rate for overall accesses
system.cpu.icache.ReadReq_avg_miss_latency::cpu.inst 79039.658635                       # average ReadReq miss latency
system.cpu.icache.ReadReq_avg_miss_latency::total 79039.658635                       # average ReadReq miss latency
system.cpu.icache.demand_avg_miss_latency::cpu.inst 79039.658635                       # average overall miss latency
system.cpu.icache.demand_avg_miss_latency::total 79039.658635                       # average overall miss latency
system.cpu.icache.overall_avg_miss_latency::cpu.inst 79039.658635                       # average overall miss latency
system.cpu.icache.overall_avg_miss_latency::total 79039.658635                       # average overall miss latency
system.cpu.icache.blocked_cycles::no_mshrs            0                       # number of cycles access was blocked
system.cpu.icache.blocked_cycles::no_targets            0                       # number of cycles access was blocked
system.cpu.icache.blocked::no_mshrs                 0                       # number of cycles access was blocked
system.cpu.icache.blocked::no_targets               0                       # number of cycles access was blocked
system.cpu.icache.avg_blocked_cycles::no_mshrs          nan                       # average number of cycles each access was blocked
system.cpu.icache.avg_blocked_cycles::no_targets          nan                       # average number of cycles each access was blocked
system.cpu.icache.fast_writes                       0                       # number of fast writes performed
system.cpu.icache.cache_copies                      0                       # number of cache copies performed
system.cpu.icache.writebacks::writebacks          133                       # number of writebacks
system.cpu.icache.writebacks::total               133                       # number of writebacks
system.cpu.icache.ReadReq_mshr_misses::cpu.inst          996                       # number of ReadReq MSHR misses
system.cpu.icache.ReadReq_mshr_misses::total          996                       # number of ReadReq MSHR misses
system.cpu.icache.demand_mshr_misses::cpu.inst          996                       # number of demand (read+write) MSHR misses
system.cpu.icache.demand_mshr_misses::total          996                       # number of demand (read+write) MSHR misses
system.cpu.icache.overall_mshr_misses::cpu.inst          996                       # number of overall MSHR misses
system.cpu.icache.overall_mshr_misses::total          996                       # number of overall MSHR misses
system.cpu.icache.ReadReq_mshr_miss_latency::cpu.inst     77727500                       # number of ReadReq MSHR miss cycles
system.cpu.icache.ReadReq_mshr_miss_latency::total     77727500                       # number of ReadReq MSHR miss cycles
system.cpu.icache.demand_mshr_miss_latency::cpu.inst     77727500                       # number of demand (read+write) MSHR miss cycles
system.cpu.icache.demand_mshr_miss_latency::total     77727500                       # number of demand (read+write) MSHR miss cycles
system.cpu.icache.overall_mshr_miss_latency::cpu.inst     77727500                       # number of overall MSHR miss cycles
system.cpu.icache.overall_mshr_miss_latency::total     77727500                       # number of overall MSHR miss cycles
system.cpu.icache.ReadReq_mshr_miss_rate::cpu.inst     0.000001                       # mshr miss rate for ReadReq accesses
system.cpu.icache.ReadReq_mshr_miss_rate::total     0.000001                       # mshr miss rate for ReadReq accesses
system.cpu.icache.demand_mshr_miss_rate::cpu.inst     0.000001                       # mshr miss rate for demand accesses
system.cpu.icache.demand_mshr_miss_rate::total     0.000001                       # mshr miss rate for demand accesses
system.cpu.icache.overall_mshr_miss_rate::cpu.inst     0.000001                       # mshr miss rate for overall accesses
system.cpu.icache.overall_mshr_miss_rate::total     0.000001                       # mshr miss rate for overall accesses
system.cpu.icache.ReadReq_avg_mshr_miss_latency::cpu.inst 78039.658635                       # average ReadReq mshr miss latency
system.cpu.icache.ReadReq_avg_mshr_miss_latency::total 78039.658635                       # average ReadReq mshr miss latency
system.cpu.icache.demand_avg_mshr_miss_latency::cpu.inst 78039.658635                       # average overall mshr miss latency
system.cpu.icache.demand_avg_mshr_miss_latency::total 78039.658635                       # average overall mshr miss latency
system.cpu.icache.overall_avg_mshr_miss_latency::cpu.inst 78039.658635                       # average overall mshr miss latency
system.cpu.icache.overall_avg_mshr_miss_latency::total 78039.658635                       # average overall mshr miss latency
system.cpu.icache.no_allocate_misses                0                       # Number of misses that were no-allocate
system.cpu.itb_walker_cache.tags.replacements            0                       # number of replacements
system.cpu.itb_walker_cache.tags.tagsinuse            0                       # Cycle average of tags in use
system.cpu.itb_walker_cache.tags.total_refs            0                       # Total number of references to valid blocks.
system.cpu.itb_walker_cache.tags.sampled_refs            0                       # Sample count of references to valid blocks.
system.cpu.itb_walker_cache.tags.avg_refs          nan                       # Average number of references to valid blocks.
system.cpu.itb_walker_cache.tags.warmup_cycle            0                       # Cycle when the warmup percentage was hit.
system.cpu.itb_walker_cache.tags.tag_accesses            0                       # Number of tag accesses
system.cpu.itb_walker_cache.tags.data_accesses            0                       # Number of data accesses
system.cpu.itb_walker_cache.blocked_cycles::no_mshrs            0                       # number of cycles access was blocked
system.cpu.itb_walker_cache.blocked_cycles::no_targets            0                       # number of cycles access was blocked
system.cpu.itb_walker_cache.blocked::no_mshrs            0                       # number of cycles access was blocked
system.cpu.itb_walker_cache.blocked::no_targets            0                       # number of cycles access was blocked
system.cpu.itb_walker_cache.avg_blocked_cycles::no_mshrs          nan                       # average number of cycles each access was blocked
system.cpu.itb_walker_cache.avg_blocked_cycles::no_targets          nan                       # average number of cycles each access was blocked
system.cpu.itb_walker_cache.fast_writes             0                       # number of fast writes performed
system.cpu.itb_walker_cache.cache_copies            0                       # number of cache copies performed
system.cpu.itb_walker_cache.no_allocate_misses            0                       # Number of misses that were no-allocate
system.l2.tags.replacements                   1397920                       # number of replacements
system.l2.tags.tagsinuse                  4094.921559                       # Cycle average of tags in use
system.l2.tags.total_refs                     2658415                       # Total number of references to valid blocks.
system.l2.tags.sampled_refs                   1402016                       # Sample count of references to valid blocks.
system.l2.tags.avg_refs                      1.896137                       # Average number of references to valid blocks.
system.l2.tags.warmup_cycle                 448060000                       # Cycle when the warmup percentage was hit.
system.l2.tags.occ_blocks::writebacks     1224.189004                       # Average occupied blocks per requestor
system.l2.tags.occ_blocks::cpu.inst          4.946223                       # Average occupied blocks per requestor
system.l2.tags.occ_blocks::cpu.data       2865.786332                       # Average occupied blocks per requestor
system.l2.tags.occ_percent::writebacks       0.298874                       # Average percentage of cache occupancy
system.l2.tags.occ_percent::cpu.inst         0.001208                       # Average percentage of cache occupancy
system.l2.tags.occ_percent::cpu.data         0.699655                       # Average percentage of cache occupancy
system.l2.tags.occ_percent::total            0.999737                       # Average percentage of cache occupancy
system.l2.tags.occ_task_id_blocks::1024          4096                       # Occupied blocks per task id
system.l2.tags.age_task_id_blocks_1024::1           15                       # Occupied blocks per task id
system.l2.tags.age_task_id_blocks_1024::2           11                       # Occupied blocks per task id
system.l2.tags.age_task_id_blocks_1024::3         1452                       # Occupied blocks per task id
system.l2.tags.age_task_id_blocks_1024::4         2618                       # Occupied blocks per task id
system.l2.tags.occ_task_id_percent::1024            1                       # Percentage of cache occupancy per task id
system.l2.tags.tag_accesses               19241252491                       # Number of tag accesses
system.l2.tags.data_accesses              19241252491                       # Number of data accesses
system.l2.WritebackDirty_hits::writebacks      1007462                       # number of WritebackDirty hits
system.l2.WritebackDirty_hits::total          1007462                       # number of WritebackDirty hits
system.l2.WritebackClean_hits::writebacks          133                       # number of WritebackClean hits
system.l2.WritebackClean_hits::total              133                       # number of WritebackClean hits
system.l2.ReadExReq_hits::cpu.data             142032                       # number of ReadExReq hits
system.l2.ReadExReq_hits::total                142032                       # number of ReadExReq hits
system.l2.ReadCleanReq_hits::cpu.inst               1                       # number of ReadCleanReq hits
system.l2.ReadCleanReq_hits::total                  1                       # number of ReadCleanReq hits
system.l2.ReadSharedReq_hits::cpu.data         807094                       # number of ReadSharedReq hits
system.l2.ReadSharedReq_hits::total            807094                       # number of ReadSharedReq hits
system.l2.demand_hits::cpu.inst                     1                       # number of demand (read+write) hits
system.l2.demand_hits::cpu.data                949126                       # number of demand (read+write) hits
system.l2.demand_hits::total                   949127                       # number of demand (read+write) hits
system.l2.overall_hits::cpu.inst                    1                       # number of overall hits
system.l2.overall_hits::cpu.data               949126                       # number of overall hits
system.l2.overall_hits::total                  949127                       # number of overall hits
system.l2.ReadExReq_misses::cpu.data           493339                       # number of ReadExReq misses
system.l2.ReadExReq_misses::total              493339                       # number of ReadExReq misses
system.l2.ReadCleanReq_misses::cpu.inst           995                       # number of ReadCleanReq misses
system.l2.ReadCleanReq_misses::total              995                       # number of ReadCleanReq misses
system.l2.ReadSharedReq_misses::cpu.data       906020                       # number of ReadSharedReq misses
system.l2.ReadSharedReq_misses::total          906020                       # number of ReadSharedReq misses
system.l2.demand_misses::cpu.inst                 995                       # number of demand (read+write) misses
system.l2.demand_misses::cpu.data             1399359                       # number of demand (read+write) misses
system.l2.demand_misses::total                1400354                       # number of demand (read+write) misses
system.l2.overall_misses::cpu.inst                995                       # number of overall misses
system.l2.overall_misses::cpu.data            1399359                       # number of overall misses
system.l2.overall_misses::total               1400354                       # number of overall misses
system.l2.ReadExReq_miss_latency::cpu.data  42693782500                       # number of ReadExReq miss cycles
system.l2.ReadExReq_miss_latency::total   42693782500                       # number of ReadExReq miss cycles
system.l2.ReadCleanReq_miss_latency::cpu.inst     76221500                       # number of ReadCleanReq miss cycles
system.l2.ReadCleanReq_miss_latency::total     76221500                       # number of ReadCleanReq miss cycles
system.l2.ReadSharedReq_miss_latency::cpu.data  75784298500                       # number of ReadSharedReq miss cycles
system.l2.ReadSharedReq_miss_latency::total  75784298500                       # number of ReadSharedReq miss cycles
system.l2.demand_miss_latency::cpu.inst      76221500                       # number of demand (read+write) miss cycles
system.l2.demand_miss_latency::cpu.data  118478081000                       # number of demand (read+write) miss cycles
system.l2.demand_miss_latency::total     118554302500                       # number of demand (read+write) miss cycles
system.l2.overall_miss_latency::cpu.inst     76221500                       # number of overall miss cycles
system.l2.overall_miss_latency::cpu.data 118478081000                       # number of overall miss cycles
system.l2.overall_miss_latency::total    118554302500                       # number of overall miss cycles
system.l2.WritebackDirty_accesses::writebacks      1007462                       # number of WritebackDirty accesses(hits+misses)
system.l2.WritebackDirty_accesses::total      1007462                       # number of WritebackDirty accesses(hits+misses)
system.l2.WritebackClean_accesses::writebacks          133                       # number of WritebackClean accesses(hits+misses)
system.l2.WritebackClean_accesses::total          133                       # number of WritebackClean accesses(hits+misses)
system.l2.ReadExReq_accesses::cpu.data         635371                       # number of ReadExReq accesses(hits+misses)
system.l2.ReadExReq_accesses::total            635371                       # number of ReadExReq accesses(hits+misses)
system.l2.ReadCleanReq_accesses::cpu.inst          996                       # number of ReadCleanReq accesses(hits+misses)
system.l2.ReadCleanReq_accesses::total            996                       # number of ReadCleanReq accesses(hits+misses)
system.l2.ReadSharedReq_accesses::cpu.data      1713114                       # number of ReadSharedReq accesses(hits+misses)
system.l2.ReadSharedReq_accesses::total       1713114                       # number of ReadSharedReq accesses(hits+misses)
system.l2.demand_accesses::cpu.inst               996                       # number of demand (read+write) accesses
system.l2.demand_accesses::cpu.data           2348485                       # number of demand (read+write) accesses
system.l2.demand_accesses::total              2349481                       # number of demand (read+write) accesses
system.l2.overall_accesses::cpu.inst              996                       # number of overall (read+write) accesses
system.l2.overall_accesses::cpu.data          2348485                       # number of overall (read+write) accesses
system.l2.overall_accesses::total             2349481                       # number of overall (read+write) accesses
system.l2.ReadExReq_miss_rate::cpu.data      0.776458                       # miss rate for ReadExReq accesses
system.l2.ReadExReq_miss_rate::total         0.776458                       # miss rate for ReadExReq accesses
system.l2.ReadCleanReq_miss_rate::cpu.inst     0.998996                       # miss rate for ReadCleanReq accesses
system.l2.ReadCleanReq_miss_rate::total      0.998996                       # miss rate for ReadCleanReq accesses
system.l2.ReadSharedReq_miss_rate::cpu.data     0.528873                       # miss rate for ReadSharedReq accesses
system.l2.ReadSharedReq_miss_rate::total     0.528873                       # miss rate for ReadSharedReq accesses
system.l2.demand_miss_rate::cpu.inst         0.998996                       # miss rate for demand accesses
system.l2.demand_miss_rate::cpu.data         0.595856                       # miss rate for demand accesses
system.l2.demand_miss_rate::total            0.596027                       # miss rate for demand accesses
system.l2.overall_miss_rate::cpu.inst        0.998996                       # miss rate for overall accesses
system.l2.overall_miss_rate::cpu.data        0.595856                       # miss rate for overall accesses
system.l2.overall_miss_rate::total           0.596027                       # miss rate for overall accesses
system.l2.ReadExReq_avg_miss_latency::cpu.data 86540.456968                       # average ReadExReq miss latency
system.l2.ReadExReq_avg_miss_latency::total 86540.456968                       # average ReadExReq miss latency
system.l2.ReadCleanReq_avg_miss_latency::cpu.inst 76604.522613                       # average ReadCleanReq miss latency
system.l2.ReadCleanReq_avg_miss_latency::total 76604.522613                       # average ReadCleanReq miss latency
system.l2.ReadSharedReq_avg_miss_latency::cpu.data 83645.282113                       # average ReadSharedReq miss latency
system.l2.ReadSharedReq_avg_miss_latency::total 83645.282113                       # average ReadSharedReq miss latency
system.l2.demand_avg_miss_latency::cpu.inst 76604.522613                       # average overall miss latency
system.l2.demand_avg_miss_latency::cpu.data 84665.965631                       # average overall miss latency
system.l2.demand_avg_miss_latency::total 84660.237697                       # average overall miss latency
system.l2.overall_avg_miss_latency::cpu.inst 76604.522613                       # average overall miss latency
system.l2.overall_avg_miss_latency::cpu.data 84665.965631                       # average overall miss latency
system.l2.overall_avg_miss_latency::total 84660.237697                       # average overall miss latency
system.l2.blocked_cycles::no_mshrs                  0                       # number of cycles access was blocked
system.l2.blocked_cycles::no_targets                0                       # number of cycles access was blocked
system.l2.blocked::no_mshrs                         0                       # number of cycles access was blocked
system.l2.blocked::no_targets                       0                       # number of cycles access was blocked
system.l2.avg_blocked_cycles::no_mshrs            nan                       # average number of cycles each access was blocked
system.l2.avg_blocked_cycles::no_targets          nan                       # average number of cycles each access was blocked
system.l2.fast_writes                               0                       # number of fast writes performed
system.l2.cache_copies                              0                       # number of cache copies performed
system.l2.writebacks::writebacks               616539                       # number of writebacks
system.l2.writebacks::total                    616539                       # number of writebacks
system.l2.CleanEvict_mshr_misses::writebacks         1272                       # number of CleanEvict MSHR misses
system.l2.CleanEvict_mshr_misses::total          1272                       # number of CleanEvict MSHR misses
system.l2.ReadExReq_mshr_misses::cpu.data       493339                       # number of ReadExReq MSHR misses
system.l2.ReadExReq_mshr_misses::total         493339                       # number of ReadExReq MSHR misses
system.l2.ReadCleanReq_mshr_misses::cpu.inst          995                       # number of ReadCleanReq MSHR misses
system.l2.ReadCleanReq_mshr_misses::total          995                       # number of ReadCleanReq MSHR misses
system.l2.ReadSharedReq_mshr_misses::cpu.data       906020                       # number of ReadSharedReq MSHR misses
system.l2.ReadSharedReq_mshr_misses::total       906020                       # number of ReadSharedReq MSHR misses
system.l2.demand_mshr_misses::cpu.inst            995                       # number of demand (read+write) MSHR misses
system.l2.demand_mshr_misses::cpu.data        1399359                       # number of demand (read+write) MSHR misses
system.l2.demand_mshr_misses::total           1400354                       # number of demand (read+write) MSHR misses
system.l2.overall_mshr_misses::cpu.inst           995                       # number of overall MSHR misses
system.l2.overall_mshr_misses::cpu.data       1399359                       # number of overall MSHR misses
system.l2.overall_mshr_misses::total          1400354                       # number of overall MSHR misses
system.l2.ReadExReq_mshr_miss_latency::cpu.data  37760392500                       # number of ReadExReq MSHR miss cycles
system.l2.ReadExReq_mshr_miss_latency::total  37760392500                       # number of ReadExReq MSHR miss cycles
system.l2.ReadCleanReq_mshr_miss_latency::cpu.inst     66271500                       # number of ReadCleanReq MSHR miss cycles
system.l2.ReadCleanReq_mshr_miss_latency::total     66271500                       # number of ReadCleanReq MSHR miss cycles
system.l2.ReadSharedReq_mshr_miss_latency::cpu.data  66724098500                       # number of ReadSharedReq MSHR miss cycles
system.l2.ReadSharedReq_mshr_miss_latency::total  66724098500                       # number of ReadSharedReq MSHR miss cycles
system.l2.demand_mshr_miss_latency::cpu.inst     66271500                       # number of demand (read+write) MSHR miss cycles
system.l2.demand_mshr_miss_latency::cpu.data 104484491000                       # number of demand (read+write) MSHR miss cycles
system.l2.demand_mshr_miss_latency::total 104550762500                       # number of demand (read+write) MSHR miss cycles
system.l2.overall_mshr_miss_latency::cpu.inst     66271500                       # number of overall MSHR miss cycles
system.l2.overall_mshr_miss_latency::cpu.data 104484491000                       # number of overall MSHR miss cycles
system.l2.overall_mshr_miss_latency::total 104550762500                       # number of overall MSHR miss cycles
system.l2.CleanEvict_mshr_miss_rate::writebacks          inf                       # mshr miss rate for CleanEvict accesses
system.l2.CleanEvict_mshr_miss_rate::total          inf                       # mshr miss rate for CleanEvict accesses
system.l2.ReadExReq_mshr_miss_rate::cpu.data     0.776458                       # mshr miss rate for ReadExReq accesses
system.l2.ReadExReq_mshr_miss_rate::total     0.776458                       # mshr miss rate for ReadExReq accesses
system.l2.ReadCleanReq_mshr_miss_rate::cpu.inst     0.998996                       # mshr miss rate for ReadCleanReq accesses
system.l2.ReadCleanReq_mshr_miss_rate::total     0.998996                       # mshr miss rate for ReadCleanReq accesses
system.l2.ReadSharedReq_mshr_miss_rate::cpu.data     0.528873                       # mshr miss rate for ReadSharedReq accesses
system.l2.ReadSharedReq_mshr_miss_rate::total     0.528873                       # mshr miss rate for ReadSharedReq accesses
system.l2.demand_mshr_miss_rate::cpu.inst     0.998996                       # mshr miss rate for demand accesses
system.l2.demand_mshr_miss_rate::cpu.data     0.595856                       # mshr miss rate for demand accesses
system.l2.demand_mshr_miss_rate::total       0.596027                       # mshr miss rate for demand accesses
system.l2.overall_mshr_miss_rate::cpu.inst     0.998996                       # mshr miss rate for overall accesses
system.l2.overall_mshr_miss_rate::cpu.data     0.595856                       # mshr miss rate for overall accesses
system.l2.overall_mshr_miss_rate::total      0.596027                       # mshr miss rate for overall accesses
system.l2.ReadExReq_avg_mshr_miss_latency::cpu.data 76540.456968                       # average ReadExReq mshr miss latency
system.l2.ReadExReq_avg_mshr_miss_latency::total 76540.456968                       # average ReadExReq mshr miss latency
system.l2.ReadCleanReq_avg_mshr_miss_latency::cpu.inst 66604.522613                       # average ReadCleanReq mshr miss latency
system.l2.ReadCleanReq_avg_mshr_miss_latency::total 66604.522613                       # average ReadCleanReq mshr miss latency
system.l2.ReadSharedReq_avg_mshr_miss_latency::cpu.data 73645.282113                       # average ReadSharedReq mshr miss latency
system.l2.ReadSharedReq_avg_mshr_miss_latency::total 73645.282113                       # average ReadSharedReq mshr miss latency
system.l2.demand_avg_mshr_miss_latency::cpu.inst 66604.522613                       # average overall mshr miss latency
system.l2.demand_avg_mshr_miss_latency::cpu.data 74665.965631                       # average overall mshr miss latency
system.l2.demand_avg_mshr_miss_latency::total 74660.237697                       # average overall mshr miss latency
system.l2.overall_avg_mshr_miss_latency::cpu.inst 66604.522613                       # average overall mshr miss latency
system.l2.overall_avg_mshr_miss_latency::cpu.data 74665.965631                       # average overall mshr miss latency
system.l2.overall_avg_mshr_miss_latency::total 74660.237697                       # average overall mshr miss latency
system.l2.no_allocate_misses                        0                       # Number of misses that were no-allocate
system.membus.trans_dist::ReadResp             907015                       # Transaction distribution
system.membus.trans_dist::WritebackDirty       616539                       # Transaction distribution
system.membus.trans_dist::CleanEvict           778445                       # Transaction distribution
system.membus.trans_dist::ReadExReq            493339                       # Transaction distribution
system.membus.trans_dist::ReadExResp           493339                       # Transaction distribution
system.membus.trans_dist::ReadSharedReq        907015                       # Transaction distribution
system.membus.pkt_count_system.l2.mem_side::system.mem_ctrls.port      4195692                       # Packet count per connected master and slave (bytes)
system.membus.pkt_count_system.l2.mem_side::total      4195692                       # Packet count per connected master and slave (bytes)
system.membus.pkt_count::total                4195692                       # Packet count per connected master and slave (bytes)
system.membus.pkt_size_system.l2.mem_side::system.mem_ctrls.port    129081152                       # Cumulative packet size per connected master and slave (bytes)
system.membus.pkt_size_system.l2.mem_side::total    129081152                       # Cumulative packet size per connected master and slave (bytes)
system.membus.pkt_size::total               129081152                       # Cumulative packet size per connected master and slave (bytes)
system.membus.snoops                                0                       # Total snoops (count)
system.membus.snoop_fanout::samples           2795338                       # Request fanout histogram
system.membus.snoop_fanout::mean                    0                       # Request fanout histogram
system.membus.snoop_fanout::stdev                   0                       # Request fanout histogram
system.membus.snoop_fanout::underflows              0      0.00%      0.00% # Request fanout histogram
system.membus.snoop_fanout::0                 2795338    100.00%    100.00% # Request fanout histogram
system.membus.snoop_fanout::1                       0      0.00%    100.00% # Request fanout histogram
system.membus.snoop_fanout::overflows               0      0.00%    100.00% # Request fanout histogram
system.membus.snoop_fanout::min_value               0                       # Request fanout histogram
system.membus.snoop_fanout::max_value               0                       # Request fanout histogram
system.membus.snoop_fanout::total             2795338                       # Request fanout histogram
system.membus.reqLayer2.occupancy          5269474000                       # Layer occupancy (ticks)
system.membus.reqLayer2.utilization               0.5                       # Layer utilization (%)
system.membus.respLayer1.occupancy         7615035750                       # Layer occupancy (ticks)
system.membus.respLayer1.utilization              0.7                       # Layer utilization (%)
system.tol2bus.snoop_filter.tot_requests      4697075                       # Total number of requests made to the snoop filter.
system.tol2bus.snoop_filter.hit_single_requests      2347594                       # Number of requests hitting in the snoop filter with a single holder of the requested data.
system.tol2bus.snoop_filter.hit_multi_requests            1                       # Number of requests hitting in the snoop filter with multiple (>1) holders of the requested data.
system.tol2bus.snoop_filter.tot_snoops           4208                       # Total number of snoops made to the snoop filter.
system.tol2bus.snoop_filter.hit_single_snoops         4207                       # Number of snoops hitting in the snoop filter with a single holder of the requested data.
system.tol2bus.snoop_filter.hit_multi_snoops            1                       # Number of snoops hitting in the snoop filter with multiple (>1) holders of the requested data.
system.tol2bus.trans_dist::ReadResp           1714110                       # Transaction distribution
system.tol2bus.trans_dist::WritebackDirty      1624001                       # Transaction distribution
system.tol2bus.trans_dist::WritebackClean          133                       # Transaction distribution
system.tol2bus.trans_dist::CleanEvict         2121379                       # Transaction distribution
system.tol2bus.trans_dist::ReadExReq           635371                       # Transaction distribution
system.tol2bus.trans_dist::ReadExResp          635371                       # Transaction distribution
system.tol2bus.trans_dist::ReadCleanReq           996                       # Transaction distribution
system.tol2bus.trans_dist::ReadSharedReq      1713114                       # Transaction distribution
system.tol2bus.pkt_count_system.cpu.icache.mem_side::system.l2.cpu_side         2125                       # Packet count per connected master and slave (bytes)
system.tol2bus.pkt_count_system.cpu.dcache.mem_side::system.l2.cpu_side      7044430                       # Packet count per connected master and slave (bytes)
system.tol2bus.pkt_count::total               7046555                       # Packet count per connected master and slave (bytes)
system.tol2bus.pkt_size_system.cpu.icache.mem_side::system.l2.cpu_side        72256                       # Cumulative packet size per connected master and slave (bytes)
system.tol2bus.pkt_size_system.cpu.dcache.mem_side::system.l2.cpu_side    214780608                       # Cumulative packet size per connected master and slave (bytes)
system.tol2bus.pkt_size::total              214852864                       # Cumulative packet size per connected master and slave (bytes)
system.tol2bus.snoops                         1397920                       # Total snoops (count)
system.tol2bus.snoop_fanout::samples          3747401                       # Request fanout histogram
system.tol2bus.snoop_fanout::mean            0.001123                       # Request fanout histogram
system.tol2bus.snoop_fanout::stdev           0.033507                       # Request fanout histogram
system.tol2bus.snoop_fanout::underflows             0      0.00%      0.00% # Request fanout histogram
system.tol2bus.snoop_fanout::0                3743192     99.89%     99.89% # Request fanout histogram
system.tol2bus.snoop_fanout::1                   4208      0.11%    100.00% # Request fanout histogram
system.tol2bus.snoop_fanout::2                      1      0.00%    100.00% # Request fanout histogram
system.tol2bus.snoop_fanout::3                      0      0.00%    100.00% # Request fanout histogram
system.tol2bus.snoop_fanout::4                      0      0.00%    100.00% # Request fanout histogram
system.tol2bus.snoop_fanout::overflows              0      0.00%    100.00% # Request fanout histogram
system.tol2bus.snoop_fanout::min_value              0                       # Request fanout histogram
system.tol2bus.snoop_fanout::max_value              2                       # Request fanout histogram
system.tol2bus.snoop_fanout::total            3747401                       # Request fanout histogram
system.tol2bus.reqLayer0.occupancy         3356132500                       # Layer occupancy (ticks)
system.tol2bus.reqLayer0.utilization              0.3                       # Layer utilization (%)
system.tol2bus.respLayer0.occupancy           1494000                       # Layer occupancy (ticks)
system.tol2bus.respLayer0.utilization             0.0                       # Layer utilization (%)
system.tol2bus.respLayer1.occupancy        3522727500                       # Layer occupancy (ticks)
system.tol2bus.respLayer1.utilization             0.3                       # Layer utilization (%)

---------- End Simulation Statistics   ----------
