
---------- Begin Simulation Statistics ----------
sim_seconds                                  1.634591                       # Number of seconds simulated
sim_ticks                                1634591369500                       # Number of ticks simulated
final_tick                               1634591369500                       # Number of ticks from beginning of simulation (restored from checkpoints and never reset)
sim_freq                                 1000000000000                       # Frequency of simulated ticks
host_inst_rate                                 337927                       # Simulator instruction rate (inst/s)
host_op_rate                                   592260                       # Simulator op (including micro ops) rate (op/s)
host_tick_rate                             1104744930                       # Simulator tick rate (ticks/s)
host_mem_usage                                 826532                       # Number of bytes of host memory used
host_seconds                                  1479.61                       # Real time elapsed on the host
sim_insts                                   500000000                       # Number of instructions simulated
sim_ops                                     876313787                       # Number of ops (including micro ops) simulated
system.voltage_domain.voltage                       1                       # Voltage in Volts
system.clk_domain.clock                          1000                       # Clock period in ticks
system.mem_ctrls.bytes_read::cpu.inst           43200                       # Number of bytes read from this memory
system.mem_ctrls.bytes_read::cpu.data       406632960                       # Number of bytes read from this memory
system.mem_ctrls.bytes_read::total          406676160                       # Number of bytes read from this memory
system.mem_ctrls.bytes_inst_read::cpu.inst        43200                       # Number of instructions bytes read from this memory
system.mem_ctrls.bytes_inst_read::total         43200                       # Number of instructions bytes read from this memory
system.mem_ctrls.bytes_written::writebacks     71270272                       # Number of bytes written to this memory
system.mem_ctrls.bytes_written::total        71270272                       # Number of bytes written to this memory
system.mem_ctrls.num_reads::cpu.inst              675                       # Number of read requests responded to by this memory
system.mem_ctrls.num_reads::cpu.data          6353640                       # Number of read requests responded to by this memory
system.mem_ctrls.num_reads::total             6354315                       # Number of read requests responded to by this memory
system.mem_ctrls.num_writes::writebacks       1113598                       # Number of write requests responded to by this memory
system.mem_ctrls.num_writes::total            1113598                       # Number of write requests responded to by this memory
system.mem_ctrls.bw_read::cpu.inst              26429                       # Total read bandwidth from this memory (bytes/s)
system.mem_ctrls.bw_read::cpu.data          248767348                       # Total read bandwidth from this memory (bytes/s)
system.mem_ctrls.bw_read::total             248793777                       # Total read bandwidth from this memory (bytes/s)
system.mem_ctrls.bw_inst_read::cpu.inst         26429                       # Instruction read bandwidth from this memory (bytes/s)
system.mem_ctrls.bw_inst_read::total            26429                       # Instruction read bandwidth from this memory (bytes/s)
system.mem_ctrls.bw_write::writebacks        43601278                       # Write bandwidth from this memory (bytes/s)
system.mem_ctrls.bw_write::total             43601278                       # Write bandwidth from this memory (bytes/s)
system.mem_ctrls.bw_total::writebacks        43601278                       # Total bandwidth to/from this memory (bytes/s)
system.mem_ctrls.bw_total::cpu.inst             26429                       # Total bandwidth to/from this memory (bytes/s)
system.mem_ctrls.bw_total::cpu.data         248767348                       # Total bandwidth to/from this memory (bytes/s)
system.mem_ctrls.bw_total::total            292395054                       # Total bandwidth to/from this memory (bytes/s)
system.mem_ctrls.readReqs                     6354315                       # Number of read requests accepted
system.mem_ctrls.writeReqs                    1113598                       # Number of write requests accepted
system.mem_ctrls.readBursts                   6354315                       # Number of DRAM read bursts, including those serviced by the write queue
system.mem_ctrls.writeBursts                  1113598                       # Number of DRAM write bursts, including those merged in the write queue
system.mem_ctrls.bytesReadDRAM              406331904                       # Total number of bytes read from DRAM
system.mem_ctrls.bytesReadWrQ                  344256                       # Total number of bytes read from write queue
system.mem_ctrls.bytesWritten                71268672                       # Total number of bytes written to DRAM
system.mem_ctrls.bytesReadSys               406676160                       # Total read bytes from the system interface side
system.mem_ctrls.bytesWrittenSys             71270272                       # Total written bytes from the system interface side
system.mem_ctrls.servicedByWrQ                   5379                       # Number of DRAM read bursts serviced by the write queue
system.mem_ctrls.mergedWrBursts                     0                       # Number of DRAM write bursts merged with an existing one
system.mem_ctrls.neitherReadNorWriteReqs      5223635                       # Number of requests that are neither read nor write
system.mem_ctrls.perBankRdBursts::0            407848                       # Per bank write bursts
system.mem_ctrls.perBankRdBursts::1            397971                       # Per bank write bursts
system.mem_ctrls.perBankRdBursts::2            393657                       # Per bank write bursts
system.mem_ctrls.perBankRdBursts::3            396604                       # Per bank write bursts
system.mem_ctrls.perBankRdBursts::4            389219                       # Per bank write bursts
system.mem_ctrls.perBankRdBursts::5            390969                       # Per bank write bursts
system.mem_ctrls.perBankRdBursts::6            390224                       # Per bank write bursts
system.mem_ctrls.perBankRdBursts::7            387357                       # Per bank write bursts
system.mem_ctrls.perBankRdBursts::8            395635                       # Per bank write bursts
system.mem_ctrls.perBankRdBursts::9            390342                       # Per bank write bursts
system.mem_ctrls.perBankRdBursts::10           391557                       # Per bank write bursts
system.mem_ctrls.perBankRdBursts::11           397616                       # Per bank write bursts
system.mem_ctrls.perBankRdBursts::12           402924                       # Per bank write bursts
system.mem_ctrls.perBankRdBursts::13           406506                       # Per bank write bursts
system.mem_ctrls.perBankRdBursts::14           406138                       # Per bank write bursts
system.mem_ctrls.perBankRdBursts::15           404369                       # Per bank write bursts
system.mem_ctrls.perBankWrBursts::0             71827                       # Per bank write bursts
system.mem_ctrls.perBankWrBursts::1             71456                       # Per bank write bursts
system.mem_ctrls.perBankWrBursts::2             71287                       # Per bank write bursts
system.mem_ctrls.perBankWrBursts::3             72445                       # Per bank write bursts
system.mem_ctrls.perBankWrBursts::4             68392                       # Per bank write bursts
system.mem_ctrls.perBankWrBursts::5             66492                       # Per bank write bursts
system.mem_ctrls.perBankWrBursts::6             67686                       # Per bank write bursts
system.mem_ctrls.perBankWrBursts::7             66572                       # Per bank write bursts
system.mem_ctrls.perBankWrBursts::8             67407                       # Per bank write bursts
system.mem_ctrls.perBankWrBursts::9             66515                       # Per bank write bursts
system.mem_ctrls.perBankWrBursts::10            66591                       # Per bank write bursts
system.mem_ctrls.perBankWrBursts::11            69537                       # Per bank write bursts
system.mem_ctrls.perBankWrBursts::12            72118                       # Per bank write bursts
system.mem_ctrls.perBankWrBursts::13            71884                       # Per bank write bursts
system.mem_ctrls.perBankWrBursts::14            71533                       # Per bank write bursts
system.mem_ctrls.perBankWrBursts::15            71831                       # Per bank write bursts
system.mem_ctrls.numRdRetry                         0                       # Number of times read queue was full causing retry
system.mem_ctrls.numWrRetry                         0                       # Number of times write queue was full causing retry
system.mem_ctrls.totGap                  1634574159500                       # Total gap between requests
system.mem_ctrls.readPktSize::0                     0                       # Read request sizes (log2)
system.mem_ctrls.readPktSize::1                     0                       # Read request sizes (log2)
system.mem_ctrls.readPktSize::2                     0                       # Read request sizes (log2)
system.mem_ctrls.readPktSize::3                     0                       # Read request sizes (log2)
system.mem_ctrls.readPktSize::4                     0                       # Read request sizes (log2)
system.mem_ctrls.readPktSize::5                     0                       # Read request sizes (log2)
system.mem_ctrls.readPktSize::6               6354315                       # Read request sizes (log2)
system.mem_ctrls.writePktSize::0                    0                       # Write request sizes (log2)
system.mem_ctrls.writePktSize::1                    0                       # Write request sizes (log2)
system.mem_ctrls.writePktSize::2                    0                       # Write request sizes (log2)
system.mem_ctrls.writePktSize::3                    0                       # Write request sizes (log2)
system.mem_ctrls.writePktSize::4                    0                       # Write request sizes (log2)
system.mem_ctrls.writePktSize::5                    0                       # Write request sizes (log2)
system.mem_ctrls.writePktSize::6              1113598                       # Write request sizes (log2)
system.mem_ctrls.rdQLenPdf::0                 6348936                       # What read queue length does an incoming req see
system.mem_ctrls.rdQLenPdf::1                       0                       # What read queue length does an incoming req see
system.mem_ctrls.rdQLenPdf::2                       0                       # What read queue length does an incoming req see
system.mem_ctrls.rdQLenPdf::3                       0                       # What read queue length does an incoming req see
system.mem_ctrls.rdQLenPdf::4                       0                       # What read queue length does an incoming req see
system.mem_ctrls.rdQLenPdf::5                       0                       # What read queue length does an incoming req see
system.mem_ctrls.rdQLenPdf::6                       0                       # What read queue length does an incoming req see
system.mem_ctrls.rdQLenPdf::7                       0                       # What read queue length does an incoming req see
system.mem_ctrls.rdQLenPdf::8                       0                       # What read queue length does an incoming req see
system.mem_ctrls.rdQLenPdf::9                       0                       # What read queue length does an incoming req see
system.mem_ctrls.rdQLenPdf::10                      0                       # What read queue length does an incoming req see
system.mem_ctrls.rdQLenPdf::11                      0                       # What read queue length does an incoming req see
system.mem_ctrls.rdQLenPdf::12                      0                       # What read queue length does an incoming req see
system.mem_ctrls.rdQLenPdf::13                      0                       # What read queue length does an incoming req see
system.mem_ctrls.rdQLenPdf::14                      0                       # What read queue length does an incoming req see
system.mem_ctrls.rdQLenPdf::15                      0                       # What read queue length does an incoming req see
system.mem_ctrls.rdQLenPdf::16                      0                       # What read queue length does an incoming req see
system.mem_ctrls.rdQLenPdf::17                      0                       # What read queue length does an incoming req see
system.mem_ctrls.rdQLenPdf::18                      0                       # What read queue length does an incoming req see
system.mem_ctrls.rdQLenPdf::19                      0                       # What read queue length does an incoming req see
system.mem_ctrls.rdQLenPdf::20                      0                       # What read queue length does an incoming req see
system.mem_ctrls.rdQLenPdf::21                      0                       # What read queue length does an incoming req see
system.mem_ctrls.rdQLenPdf::22                      0                       # What read queue length does an incoming req see
system.mem_ctrls.rdQLenPdf::23                      0                       # What read queue length does an incoming req see
system.mem_ctrls.rdQLenPdf::24                      0                       # What read queue length does an incoming req see
system.mem_ctrls.rdQLenPdf::25                      0                       # What read queue length does an incoming req see
system.mem_ctrls.rdQLenPdf::26                      0                       # What read queue length does an incoming req see
system.mem_ctrls.rdQLenPdf::27                      0                       # What read queue length does an incoming req see
system.mem_ctrls.rdQLenPdf::28                      0                       # What read queue length does an incoming req see
system.mem_ctrls.rdQLenPdf::29                      0                       # What read queue length does an incoming req see
system.mem_ctrls.rdQLenPdf::30                      0                       # What read queue length does an incoming req see
system.mem_ctrls.rdQLenPdf::31                      0                       # What read queue length does an incoming req see
system.mem_ctrls.wrQLenPdf::0                       1                       # What write queue length does an incoming req see
system.mem_ctrls.wrQLenPdf::1                       1                       # What write queue length does an incoming req see
system.mem_ctrls.wrQLenPdf::2                       1                       # What write queue length does an incoming req see
system.mem_ctrls.wrQLenPdf::3                       1                       # What write queue length does an incoming req see
system.mem_ctrls.wrQLenPdf::4                       1                       # What write queue length does an incoming req see
system.mem_ctrls.wrQLenPdf::5                       1                       # What write queue length does an incoming req see
system.mem_ctrls.wrQLenPdf::6                       1                       # What write queue length does an incoming req see
system.mem_ctrls.wrQLenPdf::7                       1                       # What write queue length does an incoming req see
system.mem_ctrls.wrQLenPdf::8                       1                       # What write queue length does an incoming req see
system.mem_ctrls.wrQLenPdf::9                       1                       # What write queue length does an incoming req see
system.mem_ctrls.wrQLenPdf::10                      1                       # What write queue length does an incoming req see
system.mem_ctrls.wrQLenPdf::11                      1                       # What write queue length does an incoming req see
system.mem_ctrls.wrQLenPdf::12                      1                       # What write queue length does an incoming req see
system.mem_ctrls.wrQLenPdf::13                      1                       # What write queue length does an incoming req see
system.mem_ctrls.wrQLenPdf::14                      1                       # What write queue length does an incoming req see
system.mem_ctrls.wrQLenPdf::15                  31398                       # What write queue length does an incoming req see
system.mem_ctrls.wrQLenPdf::16                  32205                       # What write queue length does an incoming req see
system.mem_ctrls.wrQLenPdf::17                  65339                       # What write queue length does an incoming req see
system.mem_ctrls.wrQLenPdf::18                  65736                       # What write queue length does an incoming req see
system.mem_ctrls.wrQLenPdf::19                  65609                       # What write queue length does an incoming req see
system.mem_ctrls.wrQLenPdf::20                  65567                       # What write queue length does an incoming req see
system.mem_ctrls.wrQLenPdf::21                  65573                       # What write queue length does an incoming req see
system.mem_ctrls.wrQLenPdf::22                  65661                       # What write queue length does an incoming req see
system.mem_ctrls.wrQLenPdf::23                  65622                       # What write queue length does an incoming req see
system.mem_ctrls.wrQLenPdf::24                  65561                       # What write queue length does an incoming req see
system.mem_ctrls.wrQLenPdf::25                  65651                       # What write queue length does an incoming req see
system.mem_ctrls.wrQLenPdf::26                  65579                       # What write queue length does an incoming req see
system.mem_ctrls.wrQLenPdf::27                  66047                       # What write queue length does an incoming req see
system.mem_ctrls.wrQLenPdf::28                  65821                       # What write queue length does an incoming req see
system.mem_ctrls.wrQLenPdf::29                  65551                       # What write queue length does an incoming req see
system.mem_ctrls.wrQLenPdf::30                  65565                       # What write queue length does an incoming req see
system.mem_ctrls.wrQLenPdf::31                  65538                       # What write queue length does an incoming req see
system.mem_ctrls.wrQLenPdf::32                  65539                       # What write queue length does an incoming req see
system.mem_ctrls.wrQLenPdf::33                     20                       # What write queue length does an incoming req see
system.mem_ctrls.wrQLenPdf::34                      1                       # What write queue length does an incoming req see
system.mem_ctrls.wrQLenPdf::35                      0                       # What write queue length does an incoming req see
system.mem_ctrls.wrQLenPdf::36                      0                       # What write queue length does an incoming req see
system.mem_ctrls.wrQLenPdf::37                      0                       # What write queue length does an incoming req see
system.mem_ctrls.wrQLenPdf::38                      0                       # What write queue length does an incoming req see
system.mem_ctrls.wrQLenPdf::39                      0                       # What write queue length does an incoming req see
system.mem_ctrls.wrQLenPdf::40                      0                       # What write queue length does an incoming req see
system.mem_ctrls.wrQLenPdf::41                      0                       # What write queue length does an incoming req see
system.mem_ctrls.wrQLenPdf::42                      0                       # What write queue length does an incoming req see
system.mem_ctrls.wrQLenPdf::43                      0                       # What write queue length does an incoming req see
system.mem_ctrls.wrQLenPdf::44                      0                       # What write queue length does an incoming req see
system.mem_ctrls.wrQLenPdf::45                      0                       # What write queue length does an incoming req see
system.mem_ctrls.wrQLenPdf::46                      0                       # What write queue length does an incoming req see
system.mem_ctrls.wrQLenPdf::47                      0                       # What write queue length does an incoming req see
system.mem_ctrls.wrQLenPdf::48                      0                       # What write queue length does an incoming req see
system.mem_ctrls.wrQLenPdf::49                      0                       # What write queue length does an incoming req see
system.mem_ctrls.wrQLenPdf::50                      0                       # What write queue length does an incoming req see
system.mem_ctrls.wrQLenPdf::51                      0                       # What write queue length does an incoming req see
system.mem_ctrls.wrQLenPdf::52                      0                       # What write queue length does an incoming req see
system.mem_ctrls.wrQLenPdf::53                      0                       # What write queue length does an incoming req see
system.mem_ctrls.wrQLenPdf::54                      0                       # What write queue length does an incoming req see
system.mem_ctrls.wrQLenPdf::55                      0                       # What write queue length does an incoming req see
system.mem_ctrls.wrQLenPdf::56                      0                       # What write queue length does an incoming req see
system.mem_ctrls.wrQLenPdf::57                      0                       # What write queue length does an incoming req see
system.mem_ctrls.wrQLenPdf::58                      0                       # What write queue length does an incoming req see
system.mem_ctrls.wrQLenPdf::59                      0                       # What write queue length does an incoming req see
system.mem_ctrls.wrQLenPdf::60                      0                       # What write queue length does an incoming req see
system.mem_ctrls.wrQLenPdf::61                      0                       # What write queue length does an incoming req see
system.mem_ctrls.wrQLenPdf::62                      0                       # What write queue length does an incoming req see
system.mem_ctrls.wrQLenPdf::63                      0                       # What write queue length does an incoming req see
system.mem_ctrls.bytesPerActivate::samples      5426285                       # Bytes accessed per row activation
system.mem_ctrls.bytesPerActivate::mean     88.016124                       # Bytes accessed per row activation
system.mem_ctrls.bytesPerActivate::gmean    72.469930                       # Bytes accessed per row activation
system.mem_ctrls.bytesPerActivate::stdev   117.129069                       # Bytes accessed per row activation
system.mem_ctrls.bytesPerActivate::0-127      4867727     89.71%     89.71% # Bytes accessed per row activation
system.mem_ctrls.bytesPerActivate::128-255       383105      7.06%     96.77% # Bytes accessed per row activation
system.mem_ctrls.bytesPerActivate::256-383        48490      0.89%     97.66% # Bytes accessed per row activation
system.mem_ctrls.bytesPerActivate::384-511        23311      0.43%     98.09% # Bytes accessed per row activation
system.mem_ctrls.bytesPerActivate::512-639        16053      0.30%     98.39% # Bytes accessed per row activation
system.mem_ctrls.bytesPerActivate::640-767        13456      0.25%     98.63% # Bytes accessed per row activation
system.mem_ctrls.bytesPerActivate::768-895        14261      0.26%     98.90% # Bytes accessed per row activation
system.mem_ctrls.bytesPerActivate::896-1023         8061      0.15%     99.05% # Bytes accessed per row activation
system.mem_ctrls.bytesPerActivate::1024-1151        51821      0.95%    100.00% # Bytes accessed per row activation
system.mem_ctrls.bytesPerActivate::total      5426285                       # Bytes accessed per row activation
system.mem_ctrls.rdPerTurnAround::samples        65538                       # Reads before turning the bus around for writes
system.mem_ctrls.rdPerTurnAround::mean      96.871906                       # Reads before turning the bus around for writes
system.mem_ctrls.rdPerTurnAround::gmean     51.049068                       # Reads before turning the bus around for writes
system.mem_ctrls.rdPerTurnAround::stdev    166.784655                       # Reads before turning the bus around for writes
system.mem_ctrls.rdPerTurnAround::0-1023        65421     99.82%     99.82% # Reads before turning the bus around for writes
system.mem_ctrls.rdPerTurnAround::1024-2047          115      0.18%    100.00% # Reads before turning the bus around for writes
system.mem_ctrls.rdPerTurnAround::2048-3071            1      0.00%    100.00% # Reads before turning the bus around for writes
system.mem_ctrls.rdPerTurnAround::17408-18431            1      0.00%    100.00% # Reads before turning the bus around for writes
system.mem_ctrls.rdPerTurnAround::total         65538                       # Reads before turning the bus around for writes
system.mem_ctrls.wrPerTurnAround::samples        65538                       # Writes before turning the bus around for reads
system.mem_ctrls.wrPerTurnAround::mean      16.991257                       # Writes before turning the bus around for reads
system.mem_ctrls.wrPerTurnAround::gmean     16.960416                       # Writes before turning the bus around for reads
system.mem_ctrls.wrPerTurnAround::stdev      1.026095                       # Writes before turning the bus around for reads
system.mem_ctrls.wrPerTurnAround::16            33353     50.89%     50.89% # Writes before turning the bus around for reads
system.mem_ctrls.wrPerTurnAround::17              781      1.19%     52.08% # Writes before turning the bus around for reads
system.mem_ctrls.wrPerTurnAround::18            30086     45.91%     97.99% # Writes before turning the bus around for reads
system.mem_ctrls.wrPerTurnAround::19             1263      1.93%     99.92% # Writes before turning the bus around for reads
system.mem_ctrls.wrPerTurnAround::20               52      0.08%    100.00% # Writes before turning the bus around for reads
system.mem_ctrls.wrPerTurnAround::21                3      0.00%    100.00% # Writes before turning the bus around for reads
system.mem_ctrls.wrPerTurnAround::total         65538                       # Writes before turning the bus around for reads
system.mem_ctrls.totQLat                 143012904750                       # Total ticks spent queuing
system.mem_ctrls.totMemAccLat            262055454750                       # Total ticks spent from burst creation until serviced by the DRAM
system.mem_ctrls.totBusLat                31744680000                       # Total ticks spent in databus transfers
system.mem_ctrls.avgQLat                     22525.49                       # Average queueing delay per DRAM burst
system.mem_ctrls.avgBusLat                    5000.00                       # Average bus latency per DRAM burst
system.mem_ctrls.avgMemAccLat                41275.49                       # Average memory access latency per DRAM burst
system.mem_ctrls.avgRdBW                       248.58                       # Average DRAM read bandwidth in MiByte/s
system.mem_ctrls.avgWrBW                        43.60                       # Average achieved write bandwidth in MiByte/s
system.mem_ctrls.avgRdBWSys                    248.79                       # Average system read bandwidth in MiByte/s
system.mem_ctrls.avgWrBWSys                     43.60                       # Average system write bandwidth in MiByte/s
system.mem_ctrls.peakBW                      12800.00                       # Theoretical peak bandwidth in MiByte/s
system.mem_ctrls.busUtil                         2.28                       # Data bus utilization in percentage
system.mem_ctrls.busUtilRead                     1.94                       # Data bus utilization in percentage for reads
system.mem_ctrls.busUtilWrite                    0.34                       # Data bus utilization in percentage for writes
system.mem_ctrls.avgRdQLen                       1.00                       # Average read queue length when enqueuing
system.mem_ctrls.avgWrQLen                      24.66                       # Average write queue length when enqueuing
system.mem_ctrls.readRowHits                  1403041                       # Number of row buffer hits during reads
system.mem_ctrls.writeRowHits                  633183                       # Number of row buffer hits during writes
system.mem_ctrls.readRowHitRate                 22.10                       # Row buffer hit rate for reads
system.mem_ctrls.writeRowHitRate                56.86                       # Row buffer hit rate for writes
system.mem_ctrls.avgGap                     218879.65                       # Average gap between requests
system.mem_ctrls.pageHitRate                    27.29                       # Row buffer hit rate, read and write combined
system.mem_ctrls_0.actEnergy              20357303400                       # Energy for activate commands per rank (pJ)
system.mem_ctrls_0.preEnergy              11107655625                       # Energy for precharge commands per rank (pJ)
system.mem_ctrls_0.readEnergy             24600022200                       # Energy for read commands per rank (pJ)
system.mem_ctrls_0.writeEnergy             3603897360                       # Energy for write commands per rank (pJ)
system.mem_ctrls_0.refreshEnergy         106763526480                       # Energy for refresh commands per rank (pJ)
system.mem_ctrls_0.actBackEnergy         831001999365                       # Energy for active background per rank (pJ)
system.mem_ctrls_0.preBackEnergy         251805518250                       # Energy for precharge background per rank (pJ)
system.mem_ctrls_0.totalEnergy           1249239922680                       # Total energy per rank (pJ)
system.mem_ctrls_0.averagePower            764.252263                       # Core power per rank (mW)
system.mem_ctrls_0.memoryStateTime::IDLE 414011201250                       # Time in different power states
system.mem_ctrls_0.memoryStateTime::REF   54582580000                       # Time in different power states
system.mem_ctrls_0.memoryStateTime::PRE_PDN            0                       # Time in different power states
system.mem_ctrls_0.memoryStateTime::ACT  1165997300000                       # Time in different power states
system.mem_ctrls_0.memoryStateTime::ACT_PDN            0                       # Time in different power states
system.mem_ctrls_1.actEnergy              20665411200                       # Energy for activate commands per rank (pJ)
system.mem_ctrls_1.preEnergy              11275770000                       # Energy for precharge commands per rank (pJ)
system.mem_ctrls_1.readEnergy             24921678600                       # Energy for read commands per rank (pJ)
system.mem_ctrls_1.writeEnergy             3612055680                       # Energy for write commands per rank (pJ)
system.mem_ctrls_1.refreshEnergy         106763526480                       # Energy for refresh commands per rank (pJ)
system.mem_ctrls_1.actBackEnergy         829776898935                       # Energy for active background per rank (pJ)
system.mem_ctrls_1.preBackEnergy         252880167750                       # Energy for precharge background per rank (pJ)
system.mem_ctrls_1.totalEnergy           1249895508645                       # Total energy per rank (pJ)
system.mem_ctrls_1.averagePower            764.653333                       # Core power per rank (mW)
system.mem_ctrls_1.memoryStateTime::IDLE 415526965750                       # Time in different power states
system.mem_ctrls_1.memoryStateTime::REF   54582580000                       # Time in different power states
system.mem_ctrls_1.memoryStateTime::PRE_PDN            0                       # Time in different power states
system.mem_ctrls_1.memoryStateTime::ACT  1164481535500                       # Time in different power states
system.mem_ctrls_1.memoryStateTime::ACT_PDN            0                       # Time in different power states
system.cpu_voltage_domain.voltage                   1                       # Voltage in Volts
system.cpu_clk_domain.clock                       500                       # Clock period in ticks
system.cpu.apic_clk_domain.clock                 8000                       # Clock period in ticks
system.cpu.workload.num_syscalls                  168                       # Number of system calls
system.cpu.numCycles                       3269182739                       # number of cpu cycles simulated
system.cpu.numWorkItemsStarted                      0                       # number of work items this cpu started
system.cpu.numWorkItemsCompleted                    0                       # number of work items this cpu completed
system.cpu.committedInsts                   500000000                       # Number of instructions committed
system.cpu.committedOps                     876313787                       # Number of ops (including micro ops) committed
system.cpu.num_int_alu_accesses             872966684                       # Number of integer alu accesses
system.cpu.num_fp_alu_accesses                2882231                       # Number of float alu accesses
system.cpu.num_func_calls                    11025254                       # number of times a function call or return occured
system.cpu.num_conditional_control_insts     75981010                       # number of instructions that are conditional controls
system.cpu.num_int_insts                    872966684                       # number of integer instructions
system.cpu.num_fp_insts                       2882231                       # number of float instructions
system.cpu.num_int_register_reads          1835046968                       # number of times the integer registers were read
system.cpu.num_int_register_writes          703076421                       # number of times the integer registers were written
system.cpu.num_fp_register_reads              4386063                       # number of times the floating registers were read
system.cpu.num_fp_register_writes             2464405                       # number of times the floating registers were written
system.cpu.num_cc_register_reads            441654672                       # number of times the CC registers were read
system.cpu.num_cc_register_writes           253505512                       # number of times the CC registers were written
system.cpu.num_mem_refs                     293763601                       # number of memory refs
system.cpu.num_load_insts                   221285044                       # Number of load instructions
system.cpu.num_store_insts                   72478557                       # Number of store instructions
system.cpu.num_idle_cycles                          0                       # Number of idle cycles
system.cpu.num_busy_cycles                 3269182739                       # Number of busy cycles
system.cpu.not_idle_fraction                        1                       # Percentage of non-idle cycles
system.cpu.idle_fraction                            0                       # Percentage of idle cycles
system.cpu.Branches                          97901002                       # Number of branches fetched
system.cpu.op_class::No_OpClass                939429      0.11%      0.11% # Class of executed instruction
system.cpu.op_class::IntAlu                 578420256     66.01%     66.11% # Class of executed instruction
system.cpu.op_class::IntMult                   907073      0.10%     66.22% # Class of executed instruction
system.cpu.op_class::IntDiv                        42      0.00%     66.22% # Class of executed instruction
system.cpu.op_class::FloatAdd                 2283386      0.26%     66.48% # Class of executed instruction
system.cpu.op_class::FloatCmp                       0      0.00%     66.48% # Class of executed instruction
system.cpu.op_class::FloatCvt                       0      0.00%     66.48% # Class of executed instruction
system.cpu.op_class::FloatMult                      0      0.00%     66.48% # Class of executed instruction
system.cpu.op_class::FloatDiv                       0      0.00%     66.48% # Class of executed instruction
system.cpu.op_class::FloatSqrt                      0      0.00%     66.48% # Class of executed instruction
system.cpu.op_class::SimdAdd                        0      0.00%     66.48% # Class of executed instruction
system.cpu.op_class::SimdAddAcc                     0      0.00%     66.48% # Class of executed instruction
system.cpu.op_class::SimdAlu                        0      0.00%     66.48% # Class of executed instruction
system.cpu.op_class::SimdCmp                        0      0.00%     66.48% # Class of executed instruction
system.cpu.op_class::SimdCvt                        0      0.00%     66.48% # Class of executed instruction
system.cpu.op_class::SimdMisc                       0      0.00%     66.48% # Class of executed instruction
system.cpu.op_class::SimdMult                       0      0.00%     66.48% # Class of executed instruction
system.cpu.op_class::SimdMultAcc                    0      0.00%     66.48% # Class of executed instruction
system.cpu.op_class::SimdShift                      0      0.00%     66.48% # Class of executed instruction
system.cpu.op_class::SimdShiftAcc                   0      0.00%     66.48% # Class of executed instruction
system.cpu.op_class::SimdSqrt                       0      0.00%     66.48% # Class of executed instruction
system.cpu.op_class::SimdFloatAdd                   0      0.00%     66.48% # Class of executed instruction
system.cpu.op_class::SimdFloatAlu                   0      0.00%     66.48% # Class of executed instruction
system.cpu.op_class::SimdFloatCmp                   0      0.00%     66.48% # Class of executed instruction
system.cpu.op_class::SimdFloatCvt                   0      0.00%     66.48% # Class of executed instruction
system.cpu.op_class::SimdFloatDiv                   0      0.00%     66.48% # Class of executed instruction
system.cpu.op_class::SimdFloatMisc                  0      0.00%     66.48% # Class of executed instruction
system.cpu.op_class::SimdFloatMult                  0      0.00%     66.48% # Class of executed instruction
system.cpu.op_class::SimdFloatMultAcc               0      0.00%     66.48% # Class of executed instruction
system.cpu.op_class::SimdFloatSqrt                  0      0.00%     66.48% # Class of executed instruction
system.cpu.op_class::MemRead                221285044     25.25%     91.73% # Class of executed instruction
system.cpu.op_class::MemWrite                72478557      8.27%    100.00% # Class of executed instruction
system.cpu.op_class::IprAccess                      0      0.00%    100.00% # Class of executed instruction
system.cpu.op_class::InstPrefetch                   0      0.00%    100.00% # Class of executed instruction
system.cpu.op_class::total                  876313787                       # Class of executed instruction
system.cpu.dcache.tags.replacements          12499794                       # number of replacements
system.cpu.dcache.tags.tagsinuse          1023.834931                       # Cycle average of tags in use
system.cpu.dcache.tags.total_refs           281276911                       # Total number of references to valid blocks.
system.cpu.dcache.tags.sampled_refs          12500818                       # Sample count of references to valid blocks.
system.cpu.dcache.tags.avg_refs             22.500680                       # Average number of references to valid blocks.
system.cpu.dcache.tags.warmup_cycle         669207500                       # Cycle when the warmup percentage was hit.
system.cpu.dcache.tags.occ_blocks::cpu.data  1023.834931                       # Average occupied blocks per requestor
system.cpu.dcache.tags.occ_percent::cpu.data     0.999839                       # Average percentage of cache occupancy
system.cpu.dcache.tags.occ_percent::total     0.999839                       # Average percentage of cache occupancy
system.cpu.dcache.tags.occ_task_id_blocks::1024         1024                       # Occupied blocks per task id
system.cpu.dcache.tags.age_task_id_blocks_1024::0            5                       # Occupied blocks per task id
system.cpu.dcache.tags.age_task_id_blocks_1024::1          672                       # Occupied blocks per task id
system.cpu.dcache.tags.age_task_id_blocks_1024::2          334                       # Occupied blocks per task id
system.cpu.dcache.tags.age_task_id_blocks_1024::3           11                       # Occupied blocks per task id
system.cpu.dcache.tags.age_task_id_blocks_1024::4            2                       # Occupied blocks per task id
system.cpu.dcache.tags.occ_task_id_percent::1024            1                       # Percentage of cache occupancy per task id
system.cpu.dcache.tags.tag_accesses        1187611734                       # Number of tag accesses
system.cpu.dcache.tags.data_accesses       1187611734                       # Number of data accesses
system.cpu.dcache.ReadReq_hits::cpu.data    209214783                       # number of ReadReq hits
system.cpu.dcache.ReadReq_hits::total       209214783                       # number of ReadReq hits
system.cpu.dcache.WriteReq_hits::cpu.data     72062128                       # number of WriteReq hits
system.cpu.dcache.WriteReq_hits::total       72062128                       # number of WriteReq hits
system.cpu.dcache.demand_hits::cpu.data     281276911                       # number of demand (read+write) hits
system.cpu.dcache.demand_hits::total        281276911                       # number of demand (read+write) hits
system.cpu.dcache.overall_hits::cpu.data    281276911                       # number of overall hits
system.cpu.dcache.overall_hits::total       281276911                       # number of overall hits
system.cpu.dcache.ReadReq_misses::cpu.data     12084388                       # number of ReadReq misses
system.cpu.dcache.ReadReq_misses::total      12084388                       # number of ReadReq misses
system.cpu.dcache.WriteReq_misses::cpu.data       416430                       # number of WriteReq misses
system.cpu.dcache.WriteReq_misses::total       416430                       # number of WriteReq misses
system.cpu.dcache.demand_misses::cpu.data     12500818                       # number of demand (read+write) misses
system.cpu.dcache.demand_misses::total       12500818                       # number of demand (read+write) misses
system.cpu.dcache.overall_misses::cpu.data     12500818                       # number of overall misses
system.cpu.dcache.overall_misses::total      12500818                       # number of overall misses
system.cpu.dcache.ReadReq_miss_latency::cpu.data 656060023000                       # number of ReadReq miss cycles
system.cpu.dcache.ReadReq_miss_latency::total 656060023000                       # number of ReadReq miss cycles
system.cpu.dcache.WriteReq_miss_latency::cpu.data  19890426000                       # number of WriteReq miss cycles
system.cpu.dcache.WriteReq_miss_latency::total  19890426000                       # number of WriteReq miss cycles
system.cpu.dcache.demand_miss_latency::cpu.data 675950449000                       # number of demand (read+write) miss cycles
system.cpu.dcache.demand_miss_latency::total 675950449000                       # number of demand (read+write) miss cycles
system.cpu.dcache.overall_miss_latency::cpu.data 675950449000                       # number of overall miss cycles
system.cpu.dcache.overall_miss_latency::total 675950449000                       # number of overall miss cycles
system.cpu.dcache.ReadReq_accesses::cpu.data    221299171                       # number of ReadReq accesses(hits+misses)
system.cpu.dcache.ReadReq_accesses::total    221299171                       # number of ReadReq accesses(hits+misses)
system.cpu.dcache.WriteReq_accesses::cpu.data     72478558                       # number of WriteReq accesses(hits+misses)
system.cpu.dcache.WriteReq_accesses::total     72478558                       # number of WriteReq accesses(hits+misses)
system.cpu.dcache.demand_accesses::cpu.data    293777729                       # number of demand (read+write) accesses
system.cpu.dcache.demand_accesses::total    293777729                       # number of demand (read+write) accesses
system.cpu.dcache.overall_accesses::cpu.data    293777729                       # number of overall (read+write) accesses
system.cpu.dcache.overall_accesses::total    293777729                       # number of overall (read+write) accesses
system.cpu.dcache.ReadReq_miss_rate::cpu.data     0.054607                       # miss rate for ReadReq accesses
system.cpu.dcache.ReadReq_miss_rate::total     0.054607                       # miss rate for ReadReq accesses
system.cpu.dcache.WriteReq_miss_rate::cpu.data     0.005746                       # miss rate for WriteReq accesses
system.cpu.dcache.WriteReq_miss_rate::total     0.005746                       # miss rate for WriteReq accesses
system.cpu.dcache.demand_miss_rate::cpu.data     0.042552                       # miss rate for demand accesses
system.cpu.dcache.demand_miss_rate::total     0.042552                       # miss rate for demand accesses
system.cpu.dcache.overall_miss_rate::cpu.data     0.042552                       # miss rate for overall accesses
system.cpu.dcache.overall_miss_rate::total     0.042552                       # miss rate for overall accesses
system.cpu.dcache.ReadReq_avg_miss_latency::cpu.data 54289.884022                       # average ReadReq miss latency
system.cpu.dcache.ReadReq_avg_miss_latency::total 54289.884022                       # average ReadReq miss latency
system.cpu.dcache.WriteReq_avg_miss_latency::cpu.data 47764.152439                       # average WriteReq miss latency
system.cpu.dcache.WriteReq_avg_miss_latency::total 47764.152439                       # average WriteReq miss latency
system.cpu.dcache.demand_avg_miss_latency::cpu.data 54072.497416                       # average overall miss latency
system.cpu.dcache.demand_avg_miss_latency::total 54072.497416                       # average overall miss latency
system.cpu.dcache.overall_avg_miss_latency::cpu.data 54072.497416                       # average overall miss latency
system.cpu.dcache.overall_avg_miss_latency::total 54072.497416                       # average overall miss latency
system.cpu.dcache.blocked_cycles::no_mshrs            0                       # number of cycles access was blocked
system.cpu.dcache.blocked_cycles::no_targets            0                       # number of cycles access was blocked
system.cpu.dcache.blocked::no_mshrs                 0                       # number of cycles access was blocked
system.cpu.dcache.blocked::no_targets               0                       # number of cycles access was blocked
system.cpu.dcache.avg_blocked_cycles::no_mshrs          nan                       # average number of cycles each access was blocked
system.cpu.dcache.avg_blocked_cycles::no_targets          nan                       # average number of cycles each access was blocked
system.cpu.dcache.fast_writes                       0                       # number of fast writes performed
system.cpu.dcache.cache_copies                      0                       # number of cache copies performed
system.cpu.dcache.writebacks::writebacks      3493809                       # number of writebacks
system.cpu.dcache.writebacks::total           3493809                       # number of writebacks
system.cpu.dcache.ReadReq_mshr_misses::cpu.data     12084388                       # number of ReadReq MSHR misses
system.cpu.dcache.ReadReq_mshr_misses::total     12084388                       # number of ReadReq MSHR misses
system.cpu.dcache.WriteReq_mshr_misses::cpu.data       416430                       # number of WriteReq MSHR misses
system.cpu.dcache.WriteReq_mshr_misses::total       416430                       # number of WriteReq MSHR misses
system.cpu.dcache.demand_mshr_misses::cpu.data     12500818                       # number of demand (read+write) MSHR misses
system.cpu.dcache.demand_mshr_misses::total     12500818                       # number of demand (read+write) MSHR misses
system.cpu.dcache.overall_mshr_misses::cpu.data     12500818                       # number of overall MSHR misses
system.cpu.dcache.overall_mshr_misses::total     12500818                       # number of overall MSHR misses
system.cpu.dcache.ReadReq_mshr_miss_latency::cpu.data 643975635000                       # number of ReadReq MSHR miss cycles
system.cpu.dcache.ReadReq_mshr_miss_latency::total 643975635000                       # number of ReadReq MSHR miss cycles
system.cpu.dcache.WriteReq_mshr_miss_latency::cpu.data  19473996000                       # number of WriteReq MSHR miss cycles
system.cpu.dcache.WriteReq_mshr_miss_latency::total  19473996000                       # number of WriteReq MSHR miss cycles
system.cpu.dcache.demand_mshr_miss_latency::cpu.data 663449631000                       # number of demand (read+write) MSHR miss cycles
system.cpu.dcache.demand_mshr_miss_latency::total 663449631000                       # number of demand (read+write) MSHR miss cycles
system.cpu.dcache.overall_mshr_miss_latency::cpu.data 663449631000                       # number of overall MSHR miss cycles
system.cpu.dcache.overall_mshr_miss_latency::total 663449631000                       # number of overall MSHR miss cycles
system.cpu.dcache.ReadReq_mshr_miss_rate::cpu.data     0.054607                       # mshr miss rate for ReadReq accesses
system.cpu.dcache.ReadReq_mshr_miss_rate::total     0.054607                       # mshr miss rate for ReadReq accesses
system.cpu.dcache.WriteReq_mshr_miss_rate::cpu.data     0.005746                       # mshr miss rate for WriteReq accesses
system.cpu.dcache.WriteReq_mshr_miss_rate::total     0.005746                       # mshr miss rate for WriteReq accesses
system.cpu.dcache.demand_mshr_miss_rate::cpu.data     0.042552                       # mshr miss rate for demand accesses
system.cpu.dcache.demand_mshr_miss_rate::total     0.042552                       # mshr miss rate for demand accesses
system.cpu.dcache.overall_mshr_miss_rate::cpu.data     0.042552                       # mshr miss rate for overall accesses
system.cpu.dcache.overall_mshr_miss_rate::total     0.042552                       # mshr miss rate for overall accesses
system.cpu.dcache.ReadReq_avg_mshr_miss_latency::cpu.data 53289.884022                       # average ReadReq mshr miss latency
system.cpu.dcache.ReadReq_avg_mshr_miss_latency::total 53289.884022                       # average ReadReq mshr miss latency
system.cpu.dcache.WriteReq_avg_mshr_miss_latency::cpu.data 46764.152439                       # average WriteReq mshr miss latency
system.cpu.dcache.WriteReq_avg_mshr_miss_latency::total 46764.152439                       # average WriteReq mshr miss latency
system.cpu.dcache.demand_avg_mshr_miss_latency::cpu.data 53072.497416                       # average overall mshr miss latency
system.cpu.dcache.demand_avg_mshr_miss_latency::total 53072.497416                       # average overall mshr miss latency
system.cpu.dcache.overall_avg_mshr_miss_latency::cpu.data 53072.497416                       # average overall mshr miss latency
system.cpu.dcache.overall_avg_mshr_miss_latency::total 53072.497416                       # average overall mshr miss latency
system.cpu.dcache.no_allocate_misses                0                       # Number of misses that were no-allocate
system.cpu.dtb_walker_cache.tags.replacements            0                       # number of replacements
system.cpu.dtb_walker_cache.tags.tagsinuse            0                       # Cycle average of tags in use
system.cpu.dtb_walker_cache.tags.total_refs            0                       # Total number of references to valid blocks.
system.cpu.dtb_walker_cache.tags.sampled_refs            0                       # Sample count of references to valid blocks.
system.cpu.dtb_walker_cache.tags.avg_refs          nan                       # Average number of references to valid blocks.
system.cpu.dtb_walker_cache.tags.warmup_cycle            0                       # Cycle when the warmup percentage was hit.
system.cpu.dtb_walker_cache.tags.tag_accesses            0                       # Number of tag accesses
system.cpu.dtb_walker_cache.tags.data_accesses            0                       # Number of data accesses
system.cpu.dtb_walker_cache.blocked_cycles::no_mshrs            0                       # number of cycles access was blocked
system.cpu.dtb_walker_cache.blocked_cycles::no_targets            0                       # number of cycles access was blocked
system.cpu.dtb_walker_cache.blocked::no_mshrs            0                       # number of cycles access was blocked
system.cpu.dtb_walker_cache.blocked::no_targets            0                       # number of cycles access was blocked
system.cpu.dtb_walker_cache.avg_blocked_cycles::no_mshrs          nan                       # average number of cycles each access was blocked
system.cpu.dtb_walker_cache.avg_blocked_cycles::no_targets          nan                       # average number of cycles each access was blocked
system.cpu.dtb_walker_cache.fast_writes             0                       # number of fast writes performed
system.cpu.dtb_walker_cache.cache_copies            0                       # number of cache copies performed
system.cpu.dtb_walker_cache.no_allocate_misses            0                       # Number of misses that were no-allocate
system.cpu.icache.tags.replacements                31                       # number of replacements
system.cpu.icache.tags.tagsinuse           612.618453                       # Cycle average of tags in use
system.cpu.icache.tags.total_refs           677317269                       # Total number of references to valid blocks.
system.cpu.icache.tags.sampled_refs               677                       # Sample count of references to valid blocks.
system.cpu.icache.tags.avg_refs          1000468.639586                       # Average number of references to valid blocks.
system.cpu.icache.tags.warmup_cycle                 0                       # Cycle when the warmup percentage was hit.
system.cpu.icache.tags.occ_blocks::cpu.inst   612.618453                       # Average occupied blocks per requestor
system.cpu.icache.tags.occ_percent::cpu.inst     0.598260                       # Average percentage of cache occupancy
system.cpu.icache.tags.occ_percent::total     0.598260                       # Average percentage of cache occupancy
system.cpu.icache.tags.occ_task_id_blocks::1024          646                       # Occupied blocks per task id
system.cpu.icache.tags.age_task_id_blocks_1024::4          646                       # Occupied blocks per task id
system.cpu.icache.tags.occ_task_id_percent::1024     0.630859                       # Percentage of cache occupancy per task id
system.cpu.icache.tags.tag_accesses        2709272461                       # Number of tag accesses
system.cpu.icache.tags.data_accesses       2709272461                       # Number of data accesses
system.cpu.icache.ReadReq_hits::cpu.inst    677317269                       # number of ReadReq hits
system.cpu.icache.ReadReq_hits::total       677317269                       # number of ReadReq hits
system.cpu.icache.demand_hits::cpu.inst     677317269                       # number of demand (read+write) hits
system.cpu.icache.demand_hits::total        677317269                       # number of demand (read+write) hits
system.cpu.icache.overall_hits::cpu.inst    677317269                       # number of overall hits
system.cpu.icache.overall_hits::total       677317269                       # number of overall hits
system.cpu.icache.ReadReq_misses::cpu.inst          677                       # number of ReadReq misses
system.cpu.icache.ReadReq_misses::total           677                       # number of ReadReq misses
system.cpu.icache.demand_misses::cpu.inst          677                       # number of demand (read+write) misses
system.cpu.icache.demand_misses::total            677                       # number of demand (read+write) misses
system.cpu.icache.overall_misses::cpu.inst          677                       # number of overall misses
system.cpu.icache.overall_misses::total           677                       # number of overall misses
system.cpu.icache.ReadReq_miss_latency::cpu.inst     53807000                       # number of ReadReq miss cycles
system.cpu.icache.ReadReq_miss_latency::total     53807000                       # number of ReadReq miss cycles
system.cpu.icache.demand_miss_latency::cpu.inst     53807000                       # number of demand (read+write) miss cycles
system.cpu.icache.demand_miss_latency::total     53807000                       # number of demand (read+write) miss cycles
system.cpu.icache.overall_miss_latency::cpu.inst     53807000                       # number of overall miss cycles
system.cpu.icache.overall_miss_latency::total     53807000                       # number of overall miss cycles
system.cpu.icache.ReadReq_accesses::cpu.inst    677317946                       # number of ReadReq accesses(hits+misses)
system.cpu.icache.ReadReq_accesses::total    677317946                       # number of ReadReq accesses(hits+misses)
system.cpu.icache.demand_accesses::cpu.inst    677317946                       # number of demand (read+write) accesses
system.cpu.icache.demand_accesses::total    677317946                       # number of demand (read+write) accesses
system.cpu.icache.overall_accesses::cpu.inst    677317946                       # number of overall (read+write) accesses
system.cpu.icache.overall_accesses::total    677317946                       # number of overall (read+write) accesses
system.cpu.icache.ReadReq_miss_rate::cpu.inst     0.000001                       # miss rate for ReadReq accesses
system.cpu.icache.ReadReq_miss_rate::total     0.000001                       # miss rate for ReadReq accesses
system.cpu.icache.demand_miss_rate::cpu.inst     0.000001                       # miss rate for demand accesses
system.cpu.icache.demand_miss_rate::total     0.000001                       # miss rate for demand accesses
system.cpu.icache.overall_miss_rate::cpu.inst     0.000001                       # miss rate for overall accesses
system.cpu.icache.overall_miss_rate::total     0.000001                       # miss rate for overall accesses
system.cpu.icache.ReadReq_avg_miss_latency::cpu.inst 79478.581979                       # average ReadReq miss latency
system.cpu.icache.ReadReq_avg_miss_latency::total 79478.581979                       # average ReadReq miss latency
system.cpu.icache.demand_avg_miss_latency::cpu.inst 79478.581979                       # average overall miss latency
system.cpu.icache.demand_avg_miss_latency::total 79478.581979                       # average overall miss latency
system.cpu.icache.overall_avg_miss_latency::cpu.inst 79478.581979                       # average overall miss latency
system.cpu.icache.overall_avg_miss_latency::total 79478.581979                       # average overall miss latency
system.cpu.icache.blocked_cycles::no_mshrs            0                       # number of cycles access was blocked
system.cpu.icache.blocked_cycles::no_targets            0                       # number of cycles access was blocked
system.cpu.icache.blocked::no_mshrs                 0                       # number of cycles access was blocked
system.cpu.icache.blocked::no_targets               0                       # number of cycles access was blocked
system.cpu.icache.avg_blocked_cycles::no_mshrs          nan                       # average number of cycles each access was blocked
system.cpu.icache.avg_blocked_cycles::no_targets          nan                       # average number of cycles each access was blocked
system.cpu.icache.fast_writes                       0                       # number of fast writes performed
system.cpu.icache.cache_copies                      0                       # number of cache copies performed
system.cpu.icache.writebacks::writebacks           31                       # number of writebacks
system.cpu.icache.writebacks::total                31                       # number of writebacks
system.cpu.icache.ReadReq_mshr_misses::cpu.inst          677                       # number of ReadReq MSHR misses
system.cpu.icache.ReadReq_mshr_misses::total          677                       # number of ReadReq MSHR misses
system.cpu.icache.demand_mshr_misses::cpu.inst          677                       # number of demand (read+write) MSHR misses
system.cpu.icache.demand_mshr_misses::total          677                       # number of demand (read+write) MSHR misses
system.cpu.icache.overall_mshr_misses::cpu.inst          677                       # number of overall MSHR misses
system.cpu.icache.overall_mshr_misses::total          677                       # number of overall MSHR misses
system.cpu.icache.ReadReq_mshr_miss_latency::cpu.inst     53130000                       # number of ReadReq MSHR miss cycles
system.cpu.icache.ReadReq_mshr_miss_latency::total     53130000                       # number of ReadReq MSHR miss cycles
system.cpu.icache.demand_mshr_miss_latency::cpu.inst     53130000                       # number of demand (read+write) MSHR miss cycles
system.cpu.icache.demand_mshr_miss_latency::total     53130000                       # number of demand (read+write) MSHR miss cycles
system.cpu.icache.overall_mshr_miss_latency::cpu.inst     53130000                       # number of overall MSHR miss cycles
system.cpu.icache.overall_mshr_miss_latency::total     53130000                       # number of overall MSHR miss cycles
system.cpu.icache.ReadReq_mshr_miss_rate::cpu.inst     0.000001                       # mshr miss rate for ReadReq accesses
system.cpu.icache.ReadReq_mshr_miss_rate::total     0.000001                       # mshr miss rate for ReadReq accesses
system.cpu.icache.demand_mshr_miss_rate::cpu.inst     0.000001                       # mshr miss rate for demand accesses
system.cpu.icache.demand_mshr_miss_rate::total     0.000001                       # mshr miss rate for demand accesses
system.cpu.icache.overall_mshr_miss_rate::cpu.inst     0.000001                       # mshr miss rate for overall accesses
system.cpu.icache.overall_mshr_miss_rate::total     0.000001                       # mshr miss rate for overall accesses
system.cpu.icache.ReadReq_avg_mshr_miss_latency::cpu.inst 78478.581979                       # average ReadReq mshr miss latency
system.cpu.icache.ReadReq_avg_mshr_miss_latency::total 78478.581979                       # average ReadReq mshr miss latency
system.cpu.icache.demand_avg_mshr_miss_latency::cpu.inst 78478.581979                       # average overall mshr miss latency
system.cpu.icache.demand_avg_mshr_miss_latency::total 78478.581979                       # average overall mshr miss latency
system.cpu.icache.overall_avg_mshr_miss_latency::cpu.inst 78478.581979                       # average overall mshr miss latency
system.cpu.icache.overall_avg_mshr_miss_latency::total 78478.581979                       # average overall mshr miss latency
system.cpu.icache.no_allocate_misses                0                       # Number of misses that were no-allocate
system.cpu.itb_walker_cache.tags.replacements            0                       # number of replacements
system.cpu.itb_walker_cache.tags.tagsinuse            0                       # Cycle average of tags in use
system.cpu.itb_walker_cache.tags.total_refs            0                       # Total number of references to valid blocks.
system.cpu.itb_walker_cache.tags.sampled_refs            0                       # Sample count of references to valid blocks.
system.cpu.itb_walker_cache.tags.avg_refs          nan                       # Average number of references to valid blocks.
system.cpu.itb_walker_cache.tags.warmup_cycle            0                       # Cycle when the warmup percentage was hit.
system.cpu.itb_walker_cache.tags.tag_accesses            0                       # Number of tag accesses
system.cpu.itb_walker_cache.tags.data_accesses            0                       # Number of data accesses
system.cpu.itb_walker_cache.blocked_cycles::no_mshrs            0                       # number of cycles access was blocked
system.cpu.itb_walker_cache.blocked_cycles::no_targets            0                       # number of cycles access was blocked
system.cpu.itb_walker_cache.blocked::no_mshrs            0                       # number of cycles access was blocked
system.cpu.itb_walker_cache.blocked::no_targets            0                       # number of cycles access was blocked
system.cpu.itb_walker_cache.avg_blocked_cycles::no_mshrs          nan                       # average number of cycles each access was blocked
system.cpu.itb_walker_cache.avg_blocked_cycles::no_targets          nan                       # average number of cycles each access was blocked
system.cpu.itb_walker_cache.fast_writes             0                       # number of fast writes performed
system.cpu.itb_walker_cache.cache_copies            0                       # number of cache copies performed
system.cpu.itb_walker_cache.no_allocate_misses            0                       # Number of misses that were no-allocate
system.l2.tags.replacements                   6338400                       # number of replacements
system.l2.tags.tagsinuse                 16335.794514                       # Cycle average of tags in use
system.l2.tags.total_refs                    18230092                       # Total number of references to valid blocks.
system.l2.tags.sampled_refs                   6354778                       # Sample count of references to valid blocks.
system.l2.tags.avg_refs                      2.868722                       # Average number of references to valid blocks.
system.l2.tags.warmup_cycle                9265029000                       # Cycle when the warmup percentage was hit.
system.l2.tags.occ_blocks::writebacks     2929.738150                       # Average occupied blocks per requestor
system.l2.tags.occ_blocks::cpu.inst          3.308621                       # Average occupied blocks per requestor
system.l2.tags.occ_blocks::cpu.data      13402.747743                       # Average occupied blocks per requestor
system.l2.tags.occ_percent::writebacks       0.178817                       # Average percentage of cache occupancy
system.l2.tags.occ_percent::cpu.inst         0.000202                       # Average percentage of cache occupancy
system.l2.tags.occ_percent::cpu.data         0.818039                       # Average percentage of cache occupancy
system.l2.tags.occ_percent::total            0.997058                       # Average percentage of cache occupancy
system.l2.tags.occ_task_id_blocks::1024         16378                       # Occupied blocks per task id
system.l2.tags.age_task_id_blocks_1024::1          366                       # Occupied blocks per task id
system.l2.tags.age_task_id_blocks_1024::2         3552                       # Occupied blocks per task id
system.l2.tags.age_task_id_blocks_1024::3        11477                       # Occupied blocks per task id
system.l2.tags.age_task_id_blocks_1024::4          983                       # Occupied blocks per task id
system.l2.tags.occ_task_id_percent::1024     0.999634                       # Percentage of cache occupancy per task id
system.l2.tags.tag_accesses              102412173832                       # Number of tag accesses
system.l2.tags.data_accesses             102412173832                       # Number of data accesses
system.l2.WritebackDirty_hits::writebacks      3493809                       # number of WritebackDirty hits
system.l2.WritebackDirty_hits::total          3493809                       # number of WritebackDirty hits
system.l2.WritebackClean_hits::writebacks           31                       # number of WritebackClean hits
system.l2.WritebackClean_hits::total               31                       # number of WritebackClean hits
system.l2.ReadExReq_hits::cpu.data             206039                       # number of ReadExReq hits
system.l2.ReadExReq_hits::total                206039                       # number of ReadExReq hits
system.l2.ReadCleanReq_hits::cpu.inst               2                       # number of ReadCleanReq hits
system.l2.ReadCleanReq_hits::total                  2                       # number of ReadCleanReq hits
system.l2.ReadSharedReq_hits::cpu.data        5941139                       # number of ReadSharedReq hits
system.l2.ReadSharedReq_hits::total           5941139                       # number of ReadSharedReq hits
system.l2.demand_hits::cpu.inst                     2                       # number of demand (read+write) hits
system.l2.demand_hits::cpu.data               6147178                       # number of demand (read+write) hits
system.l2.demand_hits::total                  6147180                       # number of demand (read+write) hits
system.l2.overall_hits::cpu.inst                    2                       # number of overall hits
system.l2.overall_hits::cpu.data              6147178                       # number of overall hits
system.l2.overall_hits::total                 6147180                       # number of overall hits
system.l2.ReadExReq_misses::cpu.data           210391                       # number of ReadExReq misses
system.l2.ReadExReq_misses::total              210391                       # number of ReadExReq misses
system.l2.ReadCleanReq_misses::cpu.inst           675                       # number of ReadCleanReq misses
system.l2.ReadCleanReq_misses::total              675                       # number of ReadCleanReq misses
system.l2.ReadSharedReq_misses::cpu.data      6143249                       # number of ReadSharedReq misses
system.l2.ReadSharedReq_misses::total         6143249                       # number of ReadSharedReq misses
system.l2.demand_misses::cpu.inst                 675                       # number of demand (read+write) misses
system.l2.demand_misses::cpu.data             6353640                       # number of demand (read+write) misses
system.l2.demand_misses::total                6354315                       # number of demand (read+write) misses
system.l2.overall_misses::cpu.inst                675                       # number of overall misses
system.l2.overall_misses::cpu.data            6353640                       # number of overall misses
system.l2.overall_misses::total               6354315                       # number of overall misses
system.l2.ReadExReq_miss_latency::cpu.data  16685941000                       # number of ReadExReq miss cycles
system.l2.ReadExReq_miss_latency::total   16685941000                       # number of ReadExReq miss cycles
system.l2.ReadCleanReq_miss_latency::cpu.inst     52090000                       # number of ReadCleanReq miss cycles
system.l2.ReadCleanReq_miss_latency::total     52090000                       # number of ReadCleanReq miss cycles
system.l2.ReadSharedReq_miss_latency::cpu.data 563467093500                       # number of ReadSharedReq miss cycles
system.l2.ReadSharedReq_miss_latency::total 563467093500                       # number of ReadSharedReq miss cycles
system.l2.demand_miss_latency::cpu.inst      52090000                       # number of demand (read+write) miss cycles
system.l2.demand_miss_latency::cpu.data  580153034500                       # number of demand (read+write) miss cycles
system.l2.demand_miss_latency::total     580205124500                       # number of demand (read+write) miss cycles
system.l2.overall_miss_latency::cpu.inst     52090000                       # number of overall miss cycles
system.l2.overall_miss_latency::cpu.data 580153034500                       # number of overall miss cycles
system.l2.overall_miss_latency::total    580205124500                       # number of overall miss cycles
system.l2.WritebackDirty_accesses::writebacks      3493809                       # number of WritebackDirty accesses(hits+misses)
system.l2.WritebackDirty_accesses::total      3493809                       # number of WritebackDirty accesses(hits+misses)
system.l2.WritebackClean_accesses::writebacks           31                       # number of WritebackClean accesses(hits+misses)
system.l2.WritebackClean_accesses::total           31                       # number of WritebackClean accesses(hits+misses)
system.l2.ReadExReq_accesses::cpu.data         416430                       # number of ReadExReq accesses(hits+misses)
system.l2.ReadExReq_accesses::total            416430                       # number of ReadExReq accesses(hits+misses)
system.l2.ReadCleanReq_accesses::cpu.inst          677                       # number of ReadCleanReq accesses(hits+misses)
system.l2.ReadCleanReq_accesses::total            677                       # number of ReadCleanReq accesses(hits+misses)
system.l2.ReadSharedReq_accesses::cpu.data     12084388                       # number of ReadSharedReq accesses(hits+misses)
system.l2.ReadSharedReq_accesses::total      12084388                       # number of ReadSharedReq accesses(hits+misses)
system.l2.demand_accesses::cpu.inst               677                       # number of demand (read+write) accesses
system.l2.demand_accesses::cpu.data          12500818                       # number of demand (read+write) accesses
system.l2.demand_accesses::total             12501495                       # number of demand (read+write) accesses
system.l2.overall_accesses::cpu.inst              677                       # number of overall (read+write) accesses
system.l2.overall_accesses::cpu.data         12500818                       # number of overall (read+write) accesses
system.l2.overall_accesses::total            12501495                       # number of overall (read+write) accesses
system.l2.ReadExReq_miss_rate::cpu.data      0.505225                       # miss rate for ReadExReq accesses
system.l2.ReadExReq_miss_rate::total         0.505225                       # miss rate for ReadExReq accesses
system.l2.ReadCleanReq_miss_rate::cpu.inst     0.997046                       # miss rate for ReadCleanReq accesses
system.l2.ReadCleanReq_miss_rate::total      0.997046                       # miss rate for ReadCleanReq accesses
system.l2.ReadSharedReq_miss_rate::cpu.data     0.508362                       # miss rate for ReadSharedReq accesses
system.l2.ReadSharedReq_miss_rate::total     0.508362                       # miss rate for ReadSharedReq accesses
system.l2.demand_miss_rate::cpu.inst         0.997046                       # miss rate for demand accesses
system.l2.demand_miss_rate::cpu.data         0.508258                       # miss rate for demand accesses
system.l2.demand_miss_rate::total            0.508284                       # miss rate for demand accesses
system.l2.overall_miss_rate::cpu.inst        0.997046                       # miss rate for overall accesses
system.l2.overall_miss_rate::cpu.data        0.508258                       # miss rate for overall accesses
system.l2.overall_miss_rate::total           0.508284                       # miss rate for overall accesses
system.l2.ReadExReq_avg_miss_latency::cpu.data 79309.195736                       # average ReadExReq miss latency
system.l2.ReadExReq_avg_miss_latency::total 79309.195736                       # average ReadExReq miss latency
system.l2.ReadCleanReq_avg_miss_latency::cpu.inst 77170.370370                       # average ReadCleanReq miss latency
system.l2.ReadCleanReq_avg_miss_latency::total 77170.370370                       # average ReadCleanReq miss latency
system.l2.ReadSharedReq_avg_miss_latency::cpu.data 91721.350299                       # average ReadSharedReq miss latency
system.l2.ReadSharedReq_avg_miss_latency::total 91721.350299                       # average ReadSharedReq miss latency
system.l2.demand_avg_miss_latency::cpu.inst 77170.370370                       # average overall miss latency
system.l2.demand_avg_miss_latency::cpu.data 91310.340923                       # average overall miss latency
system.l2.demand_avg_miss_latency::total 91308.838876                       # average overall miss latency
system.l2.overall_avg_miss_latency::cpu.inst 77170.370370                       # average overall miss latency
system.l2.overall_avg_miss_latency::cpu.data 91310.340923                       # average overall miss latency
system.l2.overall_avg_miss_latency::total 91308.838876                       # average overall miss latency
system.l2.blocked_cycles::no_mshrs                  0                       # number of cycles access was blocked
system.l2.blocked_cycles::no_targets                0                       # number of cycles access was blocked
system.l2.blocked::no_mshrs                         0                       # number of cycles access was blocked
system.l2.blocked::no_targets                       0                       # number of cycles access was blocked
system.l2.avg_blocked_cycles::no_mshrs            nan                       # average number of cycles each access was blocked
system.l2.avg_blocked_cycles::no_targets          nan                       # average number of cycles each access was blocked
system.l2.fast_writes                               0                       # number of fast writes performed
system.l2.cache_copies                              0                       # number of cache copies performed
system.l2.writebacks::writebacks              1113598                       # number of writebacks
system.l2.writebacks::total                   1113598                       # number of writebacks
system.l2.CleanEvict_mshr_misses::writebacks           13                       # number of CleanEvict MSHR misses
system.l2.CleanEvict_mshr_misses::total            13                       # number of CleanEvict MSHR misses
system.l2.ReadExReq_mshr_misses::cpu.data       210391                       # number of ReadExReq MSHR misses
system.l2.ReadExReq_mshr_misses::total         210391                       # number of ReadExReq MSHR misses
system.l2.ReadCleanReq_mshr_misses::cpu.inst          675                       # number of ReadCleanReq MSHR misses
system.l2.ReadCleanReq_mshr_misses::total          675                       # number of ReadCleanReq MSHR misses
system.l2.ReadSharedReq_mshr_misses::cpu.data      6143249                       # number of ReadSharedReq MSHR misses
system.l2.ReadSharedReq_mshr_misses::total      6143249                       # number of ReadSharedReq MSHR misses
system.l2.demand_mshr_misses::cpu.inst            675                       # number of demand (read+write) MSHR misses
system.l2.demand_mshr_misses::cpu.data        6353640                       # number of demand (read+write) MSHR misses
system.l2.demand_mshr_misses::total           6354315                       # number of demand (read+write) MSHR misses
system.l2.overall_mshr_misses::cpu.inst           675                       # number of overall MSHR misses
system.l2.overall_mshr_misses::cpu.data       6353640                       # number of overall MSHR misses
system.l2.overall_mshr_misses::total          6354315                       # number of overall MSHR misses
system.l2.ReadExReq_mshr_miss_latency::cpu.data  14582031000                       # number of ReadExReq MSHR miss cycles
system.l2.ReadExReq_mshr_miss_latency::total  14582031000                       # number of ReadExReq MSHR miss cycles
system.l2.ReadCleanReq_mshr_miss_latency::cpu.inst     45340000                       # number of ReadCleanReq MSHR miss cycles
system.l2.ReadCleanReq_mshr_miss_latency::total     45340000                       # number of ReadCleanReq MSHR miss cycles
system.l2.ReadSharedReq_mshr_miss_latency::cpu.data 502034603500                       # number of ReadSharedReq MSHR miss cycles
system.l2.ReadSharedReq_mshr_miss_latency::total 502034603500                       # number of ReadSharedReq MSHR miss cycles
system.l2.demand_mshr_miss_latency::cpu.inst     45340000                       # number of demand (read+write) MSHR miss cycles
system.l2.demand_mshr_miss_latency::cpu.data 516616634500                       # number of demand (read+write) MSHR miss cycles
system.l2.demand_mshr_miss_latency::total 516661974500                       # number of demand (read+write) MSHR miss cycles
system.l2.overall_mshr_miss_latency::cpu.inst     45340000                       # number of overall MSHR miss cycles
system.l2.overall_mshr_miss_latency::cpu.data 516616634500                       # number of overall MSHR miss cycles
system.l2.overall_mshr_miss_latency::total 516661974500                       # number of overall MSHR miss cycles
system.l2.CleanEvict_mshr_miss_rate::writebacks          inf                       # mshr miss rate for CleanEvict accesses
system.l2.CleanEvict_mshr_miss_rate::total          inf                       # mshr miss rate for CleanEvict accesses
system.l2.ReadExReq_mshr_miss_rate::cpu.data     0.505225                       # mshr miss rate for ReadExReq accesses
system.l2.ReadExReq_mshr_miss_rate::total     0.505225                       # mshr miss rate for ReadExReq accesses
system.l2.ReadCleanReq_mshr_miss_rate::cpu.inst     0.997046                       # mshr miss rate for ReadCleanReq accesses
system.l2.ReadCleanReq_mshr_miss_rate::total     0.997046                       # mshr miss rate for ReadCleanReq accesses
system.l2.ReadSharedReq_mshr_miss_rate::cpu.data     0.508362                       # mshr miss rate for ReadSharedReq accesses
system.l2.ReadSharedReq_mshr_miss_rate::total     0.508362                       # mshr miss rate for ReadSharedReq accesses
system.l2.demand_mshr_miss_rate::cpu.inst     0.997046                       # mshr miss rate for demand accesses
system.l2.demand_mshr_miss_rate::cpu.data     0.508258                       # mshr miss rate for demand accesses
system.l2.demand_mshr_miss_rate::total       0.508284                       # mshr miss rate for demand accesses
system.l2.overall_mshr_miss_rate::cpu.inst     0.997046                       # mshr miss rate for overall accesses
system.l2.overall_mshr_miss_rate::cpu.data     0.508258                       # mshr miss rate for overall accesses
system.l2.overall_mshr_miss_rate::total      0.508284                       # mshr miss rate for overall accesses
system.l2.ReadExReq_avg_mshr_miss_latency::cpu.data 69309.195736                       # average ReadExReq mshr miss latency
system.l2.ReadExReq_avg_mshr_miss_latency::total 69309.195736                       # average ReadExReq mshr miss latency
system.l2.ReadCleanReq_avg_mshr_miss_latency::cpu.inst 67170.370370                       # average ReadCleanReq mshr miss latency
system.l2.ReadCleanReq_avg_mshr_miss_latency::total 67170.370370                       # average ReadCleanReq mshr miss latency
system.l2.ReadSharedReq_avg_mshr_miss_latency::cpu.data 81721.350299                       # average ReadSharedReq mshr miss latency
system.l2.ReadSharedReq_avg_mshr_miss_latency::total 81721.350299                       # average ReadSharedReq mshr miss latency
system.l2.demand_avg_mshr_miss_latency::cpu.inst 67170.370370                       # average overall mshr miss latency
system.l2.demand_avg_mshr_miss_latency::cpu.data 81310.340923                       # average overall mshr miss latency
system.l2.demand_avg_mshr_miss_latency::total 81308.838876                       # average overall mshr miss latency
system.l2.overall_avg_mshr_miss_latency::cpu.inst 67170.370370                       # average overall mshr miss latency
system.l2.overall_avg_mshr_miss_latency::cpu.data 81310.340923                       # average overall mshr miss latency
system.l2.overall_avg_mshr_miss_latency::total 81308.838876                       # average overall mshr miss latency
system.l2.no_allocate_misses                        0                       # Number of misses that were no-allocate
system.membus.trans_dist::ReadResp            6143924                       # Transaction distribution
system.membus.trans_dist::WritebackDirty      1113598                       # Transaction distribution
system.membus.trans_dist::CleanEvict          5223635                       # Transaction distribution
system.membus.trans_dist::ReadExReq            210391                       # Transaction distribution
system.membus.trans_dist::ReadExResp           210391                       # Transaction distribution
system.membus.trans_dist::ReadSharedReq       6143924                       # Transaction distribution
system.membus.pkt_count_system.l2.mem_side::system.mem_ctrls.port     19045863                       # Packet count per connected master and slave (bytes)
system.membus.pkt_count_system.l2.mem_side::total     19045863                       # Packet count per connected master and slave (bytes)
system.membus.pkt_count::total               19045863                       # Packet count per connected master and slave (bytes)
system.membus.pkt_size_system.l2.mem_side::system.mem_ctrls.port    477946432                       # Cumulative packet size per connected master and slave (bytes)
system.membus.pkt_size_system.l2.mem_side::total    477946432                       # Cumulative packet size per connected master and slave (bytes)
system.membus.pkt_size::total               477946432                       # Cumulative packet size per connected master and slave (bytes)
system.membus.snoops                                0                       # Total snoops (count)
system.membus.snoop_fanout::samples          12691548                       # Request fanout histogram
system.membus.snoop_fanout::mean                    0                       # Request fanout histogram
system.membus.snoop_fanout::stdev                   0                       # Request fanout histogram
system.membus.snoop_fanout::underflows              0      0.00%      0.00% # Request fanout histogram
system.membus.snoop_fanout::0                12691548    100.00%    100.00% # Request fanout histogram
system.membus.snoop_fanout::1                       0      0.00%    100.00% # Request fanout histogram
system.membus.snoop_fanout::overflows               0      0.00%    100.00% # Request fanout histogram
system.membus.snoop_fanout::min_value               0                       # Request fanout histogram
system.membus.snoop_fanout::max_value               0                       # Request fanout histogram
system.membus.snoop_fanout::total            12691548                       # Request fanout histogram
system.membus.reqLayer2.occupancy         17153005000                       # Layer occupancy (ticks)
system.membus.reqLayer2.utilization               1.0                       # Layer utilization (%)
system.membus.respLayer1.occupancy        35422823250                       # Layer occupancy (ticks)
system.membus.respLayer1.utilization              2.2                       # Layer utilization (%)
system.tol2bus.snoop_filter.tot_requests     25001320                       # Total number of requests made to the snoop filter.
system.tol2bus.snoop_filter.hit_single_requests     12499825                       # Number of requests hitting in the snoop filter with a single holder of the requested data.
system.tol2bus.snoop_filter.hit_multi_requests            1                       # Number of requests hitting in the snoop filter with multiple (>1) holders of the requested data.
system.tol2bus.snoop_filter.tot_snoops           1180                       # Total number of snoops made to the snoop filter.
system.tol2bus.snoop_filter.hit_single_snoops         1180                       # Number of snoops hitting in the snoop filter with a single holder of the requested data.
system.tol2bus.snoop_filter.hit_multi_snoops            0                       # Number of snoops hitting in the snoop filter with multiple (>1) holders of the requested data.
system.tol2bus.trans_dist::ReadResp          12085065                       # Transaction distribution
system.tol2bus.trans_dist::WritebackDirty      4607407                       # Transaction distribution
system.tol2bus.trans_dist::WritebackClean           31                       # Transaction distribution
system.tol2bus.trans_dist::CleanEvict        14230786                       # Transaction distribution
system.tol2bus.trans_dist::ReadExReq           416430                       # Transaction distribution
system.tol2bus.trans_dist::ReadExResp          416430                       # Transaction distribution
system.tol2bus.trans_dist::ReadCleanReq           677                       # Transaction distribution
system.tol2bus.trans_dist::ReadSharedReq     12084388                       # Transaction distribution
system.tol2bus.pkt_count_system.cpu.icache.mem_side::system.l2.cpu_side         1385                       # Packet count per connected master and slave (bytes)
system.tol2bus.pkt_count_system.cpu.dcache.mem_side::system.l2.cpu_side     37501429                       # Packet count per connected master and slave (bytes)
system.tol2bus.pkt_count::total              37502814                       # Packet count per connected master and slave (bytes)
system.tol2bus.pkt_size_system.cpu.icache.mem_side::system.l2.cpu_side        45312                       # Cumulative packet size per connected master and slave (bytes)
system.tol2bus.pkt_size_system.cpu.dcache.mem_side::system.l2.cpu_side   1023656128                       # Cumulative packet size per connected master and slave (bytes)
system.tol2bus.pkt_size::total             1023701440                       # Cumulative packet size per connected master and slave (bytes)
system.tol2bus.snoops                         6338400                       # Total snoops (count)
system.tol2bus.snoop_fanout::samples         18839895                       # Request fanout histogram
system.tol2bus.snoop_fanout::mean            0.000063                       # Request fanout histogram
system.tol2bus.snoop_fanout::stdev           0.007917                       # Request fanout histogram
system.tol2bus.snoop_fanout::underflows             0      0.00%      0.00% # Request fanout histogram
system.tol2bus.snoop_fanout::0               18838714     99.99%     99.99% # Request fanout histogram
system.tol2bus.snoop_fanout::1                   1181      0.01%    100.00% # Request fanout histogram
system.tol2bus.snoop_fanout::2                      0      0.00%    100.00% # Request fanout histogram
system.tol2bus.snoop_fanout::3                      0      0.00%    100.00% # Request fanout histogram
system.tol2bus.snoop_fanout::4                      0      0.00%    100.00% # Request fanout histogram
system.tol2bus.snoop_fanout::overflows              0      0.00%    100.00% # Request fanout histogram
system.tol2bus.snoop_fanout::min_value              0                       # Request fanout histogram
system.tol2bus.snoop_fanout::max_value              1                       # Request fanout histogram
system.tol2bus.snoop_fanout::total           18839895                       # Request fanout histogram
system.tol2bus.reqLayer0.occupancy        15994500000                       # Layer occupancy (ticks)
system.tol2bus.reqLayer0.utilization              1.0                       # Layer utilization (%)
system.tol2bus.respLayer0.occupancy           1015500                       # Layer occupancy (ticks)
system.tol2bus.respLayer0.utilization             0.0                       # Layer utilization (%)
system.tol2bus.respLayer1.occupancy       18751227000                       # Layer occupancy (ticks)
system.tol2bus.respLayer1.utilization             1.1                       # Layer utilization (%)

---------- End Simulation Statistics   ----------
