
---------- Begin Simulation Statistics ----------
sim_seconds                                  1.127151                       # Number of seconds simulated
sim_ticks                                1127151478500                       # Number of ticks simulated
final_tick                               1127151478500                       # Number of ticks from beginning of simulation (restored from checkpoints and never reset)
sim_freq                                 1000000000000                       # Frequency of simulated ticks
host_inst_rate                                 959446                       # Simulator instruction rate (inst/s)
host_op_rate                                  1401655                       # Simulator op (including micro ops) rate (op/s)
host_tick_rate                             2162881141                       # Simulator tick rate (ticks/s)
host_mem_usage                                 828676                       # Number of bytes of host memory used
host_seconds                                   521.13                       # Real time elapsed on the host
sim_insts                                   500000001                       # Number of instructions simulated
sim_ops                                     730450447                       # Number of ops (including micro ops) simulated
system.voltage_domain.voltage                       1                       # Voltage in Volts
system.clk_domain.clock                          1000                       # Clock period in ticks
system.mem_ctrls.bytes_read::cpu.inst           63552                       # Number of bytes read from this memory
system.mem_ctrls.bytes_read::cpu.data        48762752                       # Number of bytes read from this memory
system.mem_ctrls.bytes_read::total           48826304                       # Number of bytes read from this memory
system.mem_ctrls.bytes_inst_read::cpu.inst        63552                       # Number of instructions bytes read from this memory
system.mem_ctrls.bytes_inst_read::total         63552                       # Number of instructions bytes read from this memory
system.mem_ctrls.bytes_written::writebacks     26031616                       # Number of bytes written to this memory
system.mem_ctrls.bytes_written::total        26031616                       # Number of bytes written to this memory
system.mem_ctrls.num_reads::cpu.inst              993                       # Number of read requests responded to by this memory
system.mem_ctrls.num_reads::cpu.data           761918                       # Number of read requests responded to by this memory
system.mem_ctrls.num_reads::total              762911                       # Number of read requests responded to by this memory
system.mem_ctrls.num_writes::writebacks        406744                       # Number of write requests responded to by this memory
system.mem_ctrls.num_writes::total             406744                       # Number of write requests responded to by this memory
system.mem_ctrls.bw_read::cpu.inst              56383                       # Total read bandwidth from this memory (bytes/s)
system.mem_ctrls.bw_read::cpu.data           43261933                       # Total read bandwidth from this memory (bytes/s)
system.mem_ctrls.bw_read::total              43318316                       # Total read bandwidth from this memory (bytes/s)
system.mem_ctrls.bw_inst_read::cpu.inst         56383                       # Instruction read bandwidth from this memory (bytes/s)
system.mem_ctrls.bw_inst_read::total            56383                       # Instruction read bandwidth from this memory (bytes/s)
system.mem_ctrls.bw_write::writebacks        23095047                       # Write bandwidth from this memory (bytes/s)
system.mem_ctrls.bw_write::total             23095047                       # Write bandwidth from this memory (bytes/s)
system.mem_ctrls.bw_total::writebacks        23095047                       # Total bandwidth to/from this memory (bytes/s)
system.mem_ctrls.bw_total::cpu.inst             56383                       # Total bandwidth to/from this memory (bytes/s)
system.mem_ctrls.bw_total::cpu.data          43261933                       # Total bandwidth to/from this memory (bytes/s)
system.mem_ctrls.bw_total::total             66413363                       # Total bandwidth to/from this memory (bytes/s)
system.mem_ctrls.readReqs                      762911                       # Number of read requests accepted
system.mem_ctrls.writeReqs                     406744                       # Number of write requests accepted
system.mem_ctrls.readBursts                    762911                       # Number of DRAM read bursts, including those serviced by the write queue
system.mem_ctrls.writeBursts                   406744                       # Number of DRAM write bursts, including those merged in the write queue
system.mem_ctrls.bytesReadDRAM               48472320                       # Total number of bytes read from DRAM
system.mem_ctrls.bytesReadWrQ                  353984                       # Total number of bytes read from write queue
system.mem_ctrls.bytesWritten                25923904                       # Total number of bytes written to DRAM
system.mem_ctrls.bytesReadSys                48826304                       # Total read bytes from the system interface side
system.mem_ctrls.bytesWrittenSys             26031616                       # Total written bytes from the system interface side
system.mem_ctrls.servicedByWrQ                   5531                       # Number of DRAM read bursts serviced by the write queue
system.mem_ctrls.mergedWrBursts                  1658                       # Number of DRAM write bursts merged with an existing one
system.mem_ctrls.neitherReadNorWriteReqs       338875                       # Number of requests that are neither read nor write
system.mem_ctrls.perBankRdBursts::0             49281                       # Per bank write bursts
system.mem_ctrls.perBankRdBursts::1             47662                       # Per bank write bursts
system.mem_ctrls.perBankRdBursts::2             48662                       # Per bank write bursts
system.mem_ctrls.perBankRdBursts::3             45216                       # Per bank write bursts
system.mem_ctrls.perBankRdBursts::4             45184                       # Per bank write bursts
system.mem_ctrls.perBankRdBursts::5             44270                       # Per bank write bursts
system.mem_ctrls.perBankRdBursts::6             46433                       # Per bank write bursts
system.mem_ctrls.perBankRdBursts::7             45658                       # Per bank write bursts
system.mem_ctrls.perBankRdBursts::8             43248                       # Per bank write bursts
system.mem_ctrls.perBankRdBursts::9             43493                       # Per bank write bursts
system.mem_ctrls.perBankRdBursts::10            47228                       # Per bank write bursts
system.mem_ctrls.perBankRdBursts::11            47696                       # Per bank write bursts
system.mem_ctrls.perBankRdBursts::12            49671                       # Per bank write bursts
system.mem_ctrls.perBankRdBursts::13            49493                       # Per bank write bursts
system.mem_ctrls.perBankRdBursts::14            50207                       # Per bank write bursts
system.mem_ctrls.perBankRdBursts::15            53978                       # Per bank write bursts
system.mem_ctrls.perBankWrBursts::0             26243                       # Per bank write bursts
system.mem_ctrls.perBankWrBursts::1             25624                       # Per bank write bursts
system.mem_ctrls.perBankWrBursts::2             27230                       # Per bank write bursts
system.mem_ctrls.perBankWrBursts::3             24594                       # Per bank write bursts
system.mem_ctrls.perBankWrBursts::4             24196                       # Per bank write bursts
system.mem_ctrls.perBankWrBursts::5             23336                       # Per bank write bursts
system.mem_ctrls.perBankWrBursts::6             24957                       # Per bank write bursts
system.mem_ctrls.perBankWrBursts::7             24823                       # Per bank write bursts
system.mem_ctrls.perBankWrBursts::8             23689                       # Per bank write bursts
system.mem_ctrls.perBankWrBursts::9             23725                       # Per bank write bursts
system.mem_ctrls.perBankWrBursts::10            25096                       # Per bank write bursts
system.mem_ctrls.perBankWrBursts::11            24866                       # Per bank write bursts
system.mem_ctrls.perBankWrBursts::12            25482                       # Per bank write bursts
system.mem_ctrls.perBankWrBursts::13            25832                       # Per bank write bursts
system.mem_ctrls.perBankWrBursts::14            26537                       # Per bank write bursts
system.mem_ctrls.perBankWrBursts::15            28831                       # Per bank write bursts
system.mem_ctrls.numRdRetry                         0                       # Number of times read queue was full causing retry
system.mem_ctrls.numWrRetry                         0                       # Number of times write queue was full causing retry
system.mem_ctrls.totGap                  1127118687500                       # Total gap between requests
system.mem_ctrls.readPktSize::0                     0                       # Read request sizes (log2)
system.mem_ctrls.readPktSize::1                     0                       # Read request sizes (log2)
system.mem_ctrls.readPktSize::2                     0                       # Read request sizes (log2)
system.mem_ctrls.readPktSize::3                     0                       # Read request sizes (log2)
system.mem_ctrls.readPktSize::4                     0                       # Read request sizes (log2)
system.mem_ctrls.readPktSize::5                     0                       # Read request sizes (log2)
system.mem_ctrls.readPktSize::6                762911                       # Read request sizes (log2)
system.mem_ctrls.writePktSize::0                    0                       # Write request sizes (log2)
system.mem_ctrls.writePktSize::1                    0                       # Write request sizes (log2)
system.mem_ctrls.writePktSize::2                    0                       # Write request sizes (log2)
system.mem_ctrls.writePktSize::3                    0                       # Write request sizes (log2)
system.mem_ctrls.writePktSize::4                    0                       # Write request sizes (log2)
system.mem_ctrls.writePktSize::5                    0                       # Write request sizes (log2)
system.mem_ctrls.writePktSize::6               406744                       # Write request sizes (log2)
system.mem_ctrls.rdQLenPdf::0                  749040                       # What read queue length does an incoming req see
system.mem_ctrls.rdQLenPdf::1                    8057                       # What read queue length does an incoming req see
system.mem_ctrls.rdQLenPdf::2                     149                       # What read queue length does an incoming req see
system.mem_ctrls.rdQLenPdf::3                     134                       # What read queue length does an incoming req see
system.mem_ctrls.rdQLenPdf::4                       0                       # What read queue length does an incoming req see
system.mem_ctrls.rdQLenPdf::5                       0                       # What read queue length does an incoming req see
system.mem_ctrls.rdQLenPdf::6                       0                       # What read queue length does an incoming req see
system.mem_ctrls.rdQLenPdf::7                       0                       # What read queue length does an incoming req see
system.mem_ctrls.rdQLenPdf::8                       0                       # What read queue length does an incoming req see
system.mem_ctrls.rdQLenPdf::9                       0                       # What read queue length does an incoming req see
system.mem_ctrls.rdQLenPdf::10                      0                       # What read queue length does an incoming req see
system.mem_ctrls.rdQLenPdf::11                      0                       # What read queue length does an incoming req see
system.mem_ctrls.rdQLenPdf::12                      0                       # What read queue length does an incoming req see
system.mem_ctrls.rdQLenPdf::13                      0                       # What read queue length does an incoming req see
system.mem_ctrls.rdQLenPdf::14                      0                       # What read queue length does an incoming req see
system.mem_ctrls.rdQLenPdf::15                      0                       # What read queue length does an incoming req see
system.mem_ctrls.rdQLenPdf::16                      0                       # What read queue length does an incoming req see
system.mem_ctrls.rdQLenPdf::17                      0                       # What read queue length does an incoming req see
system.mem_ctrls.rdQLenPdf::18                      0                       # What read queue length does an incoming req see
system.mem_ctrls.rdQLenPdf::19                      0                       # What read queue length does an incoming req see
system.mem_ctrls.rdQLenPdf::20                      0                       # What read queue length does an incoming req see
system.mem_ctrls.rdQLenPdf::21                      0                       # What read queue length does an incoming req see
system.mem_ctrls.rdQLenPdf::22                      0                       # What read queue length does an incoming req see
system.mem_ctrls.rdQLenPdf::23                      0                       # What read queue length does an incoming req see
system.mem_ctrls.rdQLenPdf::24                      0                       # What read queue length does an incoming req see
system.mem_ctrls.rdQLenPdf::25                      0                       # What read queue length does an incoming req see
system.mem_ctrls.rdQLenPdf::26                      0                       # What read queue length does an incoming req see
system.mem_ctrls.rdQLenPdf::27                      0                       # What read queue length does an incoming req see
system.mem_ctrls.rdQLenPdf::28                      0                       # What read queue length does an incoming req see
system.mem_ctrls.rdQLenPdf::29                      0                       # What read queue length does an incoming req see
system.mem_ctrls.rdQLenPdf::30                      0                       # What read queue length does an incoming req see
system.mem_ctrls.rdQLenPdf::31                      0                       # What read queue length does an incoming req see
system.mem_ctrls.wrQLenPdf::0                       1                       # What write queue length does an incoming req see
system.mem_ctrls.wrQLenPdf::1                       1                       # What write queue length does an incoming req see
system.mem_ctrls.wrQLenPdf::2                       1                       # What write queue length does an incoming req see
system.mem_ctrls.wrQLenPdf::3                       1                       # What write queue length does an incoming req see
system.mem_ctrls.wrQLenPdf::4                       1                       # What write queue length does an incoming req see
system.mem_ctrls.wrQLenPdf::5                       1                       # What write queue length does an incoming req see
system.mem_ctrls.wrQLenPdf::6                       1                       # What write queue length does an incoming req see
system.mem_ctrls.wrQLenPdf::7                       1                       # What write queue length does an incoming req see
system.mem_ctrls.wrQLenPdf::8                       1                       # What write queue length does an incoming req see
system.mem_ctrls.wrQLenPdf::9                       1                       # What write queue length does an incoming req see
system.mem_ctrls.wrQLenPdf::10                      1                       # What write queue length does an incoming req see
system.mem_ctrls.wrQLenPdf::11                      1                       # What write queue length does an incoming req see
system.mem_ctrls.wrQLenPdf::12                      1                       # What write queue length does an incoming req see
system.mem_ctrls.wrQLenPdf::13                      1                       # What write queue length does an incoming req see
system.mem_ctrls.wrQLenPdf::14                      1                       # What write queue length does an incoming req see
system.mem_ctrls.wrQLenPdf::15                  15915                       # What write queue length does an incoming req see
system.mem_ctrls.wrQLenPdf::16                  16677                       # What write queue length does an incoming req see
system.mem_ctrls.wrQLenPdf::17                  23320                       # What write queue length does an incoming req see
system.mem_ctrls.wrQLenPdf::18                  23298                       # What write queue length does an incoming req see
system.mem_ctrls.wrQLenPdf::19                  23279                       # What write queue length does an incoming req see
system.mem_ctrls.wrQLenPdf::20                  23276                       # What write queue length does an incoming req see
system.mem_ctrls.wrQLenPdf::21                  23276                       # What write queue length does an incoming req see
system.mem_ctrls.wrQLenPdf::22                  23276                       # What write queue length does an incoming req see
system.mem_ctrls.wrQLenPdf::23                  23275                       # What write queue length does an incoming req see
system.mem_ctrls.wrQLenPdf::24                  23278                       # What write queue length does an incoming req see
system.mem_ctrls.wrQLenPdf::25                  23275                       # What write queue length does an incoming req see
system.mem_ctrls.wrQLenPdf::26                  23275                       # What write queue length does an incoming req see
system.mem_ctrls.wrQLenPdf::27                  23276                       # What write queue length does an incoming req see
system.mem_ctrls.wrQLenPdf::28                  23276                       # What write queue length does an incoming req see
system.mem_ctrls.wrQLenPdf::29                  23277                       # What write queue length does an incoming req see
system.mem_ctrls.wrQLenPdf::30                  23274                       # What write queue length does an incoming req see
system.mem_ctrls.wrQLenPdf::31                  23274                       # What write queue length does an incoming req see
system.mem_ctrls.wrQLenPdf::32                  23274                       # What write queue length does an incoming req see
system.mem_ctrls.wrQLenPdf::33                      0                       # What write queue length does an incoming req see
system.mem_ctrls.wrQLenPdf::34                      0                       # What write queue length does an incoming req see
system.mem_ctrls.wrQLenPdf::35                      0                       # What write queue length does an incoming req see
system.mem_ctrls.wrQLenPdf::36                      0                       # What write queue length does an incoming req see
system.mem_ctrls.wrQLenPdf::37                      0                       # What write queue length does an incoming req see
system.mem_ctrls.wrQLenPdf::38                      0                       # What write queue length does an incoming req see
system.mem_ctrls.wrQLenPdf::39                      0                       # What write queue length does an incoming req see
system.mem_ctrls.wrQLenPdf::40                      0                       # What write queue length does an incoming req see
system.mem_ctrls.wrQLenPdf::41                      0                       # What write queue length does an incoming req see
system.mem_ctrls.wrQLenPdf::42                      0                       # What write queue length does an incoming req see
system.mem_ctrls.wrQLenPdf::43                      0                       # What write queue length does an incoming req see
system.mem_ctrls.wrQLenPdf::44                      0                       # What write queue length does an incoming req see
system.mem_ctrls.wrQLenPdf::45                      0                       # What write queue length does an incoming req see
system.mem_ctrls.wrQLenPdf::46                      0                       # What write queue length does an incoming req see
system.mem_ctrls.wrQLenPdf::47                      0                       # What write queue length does an incoming req see
system.mem_ctrls.wrQLenPdf::48                      0                       # What write queue length does an incoming req see
system.mem_ctrls.wrQLenPdf::49                      0                       # What write queue length does an incoming req see
system.mem_ctrls.wrQLenPdf::50                      0                       # What write queue length does an incoming req see
system.mem_ctrls.wrQLenPdf::51                      0                       # What write queue length does an incoming req see
system.mem_ctrls.wrQLenPdf::52                      0                       # What write queue length does an incoming req see
system.mem_ctrls.wrQLenPdf::53                      0                       # What write queue length does an incoming req see
system.mem_ctrls.wrQLenPdf::54                      0                       # What write queue length does an incoming req see
system.mem_ctrls.wrQLenPdf::55                      0                       # What write queue length does an incoming req see
system.mem_ctrls.wrQLenPdf::56                      0                       # What write queue length does an incoming req see
system.mem_ctrls.wrQLenPdf::57                      0                       # What write queue length does an incoming req see
system.mem_ctrls.wrQLenPdf::58                      0                       # What write queue length does an incoming req see
system.mem_ctrls.wrQLenPdf::59                      0                       # What write queue length does an incoming req see
system.mem_ctrls.wrQLenPdf::60                      0                       # What write queue length does an incoming req see
system.mem_ctrls.wrQLenPdf::61                      0                       # What write queue length does an incoming req see
system.mem_ctrls.wrQLenPdf::62                      0                       # What write queue length does an incoming req see
system.mem_ctrls.wrQLenPdf::63                      0                       # What write queue length does an incoming req see
system.mem_ctrls.bytesPerActivate::samples       593433                       # Bytes accessed per row activation
system.mem_ctrls.bytesPerActivate::mean    125.365836                       # Bytes accessed per row activation
system.mem_ctrls.bytesPerActivate::gmean    92.041379                       # Bytes accessed per row activation
system.mem_ctrls.bytesPerActivate::stdev   155.061374                       # Bytes accessed per row activation
system.mem_ctrls.bytesPerActivate::0-127       411374     69.32%     69.32% # Bytes accessed per row activation
system.mem_ctrls.bytesPerActivate::128-255       119811     20.19%     89.51% # Bytes accessed per row activation
system.mem_ctrls.bytesPerActivate::256-383        25772      4.34%     93.85% # Bytes accessed per row activation
system.mem_ctrls.bytesPerActivate::384-511         9489      1.60%     95.45% # Bytes accessed per row activation
system.mem_ctrls.bytesPerActivate::512-639        13302      2.24%     97.69% # Bytes accessed per row activation
system.mem_ctrls.bytesPerActivate::640-767         2189      0.37%     98.06% # Bytes accessed per row activation
system.mem_ctrls.bytesPerActivate::768-895         1683      0.28%     98.35% # Bytes accessed per row activation
system.mem_ctrls.bytesPerActivate::896-1023         1419      0.24%     98.59% # Bytes accessed per row activation
system.mem_ctrls.bytesPerActivate::1024-1151         8394      1.41%    100.00% # Bytes accessed per row activation
system.mem_ctrls.bytesPerActivate::total       593433                       # Bytes accessed per row activation
system.mem_ctrls.rdPerTurnAround::samples        23274                       # Reads before turning the bus around for writes
system.mem_ctrls.rdPerTurnAround::mean      32.529346                       # Reads before turning the bus around for writes
system.mem_ctrls.rdPerTurnAround::gmean     24.745833                       # Reads before turning the bus around for writes
system.mem_ctrls.rdPerTurnAround::stdev    131.021586                       # Reads before turning the bus around for writes
system.mem_ctrls.rdPerTurnAround::0-511         23231     99.82%     99.82% # Reads before turning the bus around for writes
system.mem_ctrls.rdPerTurnAround::512-1023           33      0.14%     99.96% # Reads before turning the bus around for writes
system.mem_ctrls.rdPerTurnAround::1024-1535            3      0.01%     99.97% # Reads before turning the bus around for writes
system.mem_ctrls.rdPerTurnAround::1536-2047            1      0.00%     99.97% # Reads before turning the bus around for writes
system.mem_ctrls.rdPerTurnAround::5120-5631            1      0.00%     99.98% # Reads before turning the bus around for writes
system.mem_ctrls.rdPerTurnAround::6144-6655            1      0.00%     99.98% # Reads before turning the bus around for writes
system.mem_ctrls.rdPerTurnAround::6656-7167            1      0.00%     99.99% # Reads before turning the bus around for writes
system.mem_ctrls.rdPerTurnAround::7168-7679            1      0.00%     99.99% # Reads before turning the bus around for writes
system.mem_ctrls.rdPerTurnAround::8704-9215            1      0.00%    100.00% # Reads before turning the bus around for writes
system.mem_ctrls.rdPerTurnAround::10240-10751            1      0.00%    100.00% # Reads before turning the bus around for writes
system.mem_ctrls.rdPerTurnAround::total         23274                       # Reads before turning the bus around for writes
system.mem_ctrls.wrPerTurnAround::samples        23274                       # Writes before turning the bus around for reads
system.mem_ctrls.wrPerTurnAround::mean      17.404013                       # Writes before turning the bus around for reads
system.mem_ctrls.wrPerTurnAround::gmean     17.379852                       # Writes before turning the bus around for reads
system.mem_ctrls.wrPerTurnAround::stdev      0.903025                       # Writes before turning the bus around for reads
system.mem_ctrls.wrPerTurnAround::16             6599     28.35%     28.35% # Writes before turning the bus around for reads
system.mem_ctrls.wrPerTurnAround::17              761      3.27%     31.62% # Writes before turning the bus around for reads
system.mem_ctrls.wrPerTurnAround::18            15826     68.00%     99.62% # Writes before turning the bus around for reads
system.mem_ctrls.wrPerTurnAround::19               88      0.38%    100.00% # Writes before turning the bus around for reads
system.mem_ctrls.wrPerTurnAround::total         23274                       # Writes before turning the bus around for reads
system.mem_ctrls.totQLat                  11213238500                       # Total ticks spent queuing
system.mem_ctrls.totMemAccLat             25414113500                       # Total ticks spent from burst creation until serviced by the DRAM
system.mem_ctrls.totBusLat                 3786900000                       # Total ticks spent in databus transfers
system.mem_ctrls.avgQLat                     14805.30                       # Average queueing delay per DRAM burst
system.mem_ctrls.avgBusLat                    5000.00                       # Average bus latency per DRAM burst
system.mem_ctrls.avgMemAccLat                33555.30                       # Average memory access latency per DRAM burst
system.mem_ctrls.avgRdBW                        43.00                       # Average DRAM read bandwidth in MiByte/s
system.mem_ctrls.avgWrBW                        23.00                       # Average achieved write bandwidth in MiByte/s
system.mem_ctrls.avgRdBWSys                     43.32                       # Average system read bandwidth in MiByte/s
system.mem_ctrls.avgWrBWSys                     23.10                       # Average system write bandwidth in MiByte/s
system.mem_ctrls.peakBW                      12800.00                       # Theoretical peak bandwidth in MiByte/s
system.mem_ctrls.busUtil                         0.52                       # Data bus utilization in percentage
system.mem_ctrls.busUtilRead                     0.34                       # Data bus utilization in percentage for reads
system.mem_ctrls.busUtilWrite                    0.18                       # Data bus utilization in percentage for writes
system.mem_ctrls.avgRdQLen                       1.00                       # Average read queue length when enqueuing
system.mem_ctrls.avgWrQLen                      24.06                       # Average write queue length when enqueuing
system.mem_ctrls.readRowHits                   352532                       # Number of row buffer hits during reads
system.mem_ctrls.writeRowHits                  216476                       # Number of row buffer hits during writes
system.mem_ctrls.readRowHitRate                 46.55                       # Row buffer hit rate for reads
system.mem_ctrls.writeRowHitRate                53.44                       # Row buffer hit rate for writes
system.mem_ctrls.avgGap                     963633.45                       # Average gap between requests
system.mem_ctrls.pageHitRate                    48.95                       # Row buffer hit rate, read and write combined
system.mem_ctrls_0.actEnergy               2207444400                       # Energy for activate commands per rank (pJ)
system.mem_ctrls_0.preEnergy               1204458750                       # Energy for precharge commands per rank (pJ)
system.mem_ctrls_0.readEnergy              2904454800                       # Energy for read commands per rank (pJ)
system.mem_ctrls_0.writeEnergy             1302499440                       # Energy for write commands per rank (pJ)
system.mem_ctrls_0.refreshEnergy          73619654160                       # Energy for refresh commands per rank (pJ)
system.mem_ctrls_0.actBackEnergy         240327081630                       # Energy for active background per rank (pJ)
system.mem_ctrls_0.preBackEnergy         465474120000                       # Energy for precharge background per rank (pJ)
system.mem_ctrls_0.totalEnergy           787039713180                       # Total energy per rank (pJ)
system.mem_ctrls_0.averagePower            698.259147                       # Core power per rank (mW)
system.mem_ctrls_0.memoryStateTime::IDLE 772905049000                       # Time in different power states
system.mem_ctrls_0.memoryStateTime::REF   37637860000                       # Time in different power states
system.mem_ctrls_0.memoryStateTime::PRE_PDN            0                       # Time in different power states
system.mem_ctrls_0.memoryStateTime::ACT  316602687250                       # Time in different power states
system.mem_ctrls_0.memoryStateTime::ACT_PDN            0                       # Time in different power states
system.mem_ctrls_1.actEnergy               2278909080                       # Energy for activate commands per rank (pJ)
system.mem_ctrls_1.preEnergy               1243452375                       # Energy for precharge commands per rank (pJ)
system.mem_ctrls_1.readEnergy              3003109200                       # Energy for read commands per rank (pJ)
system.mem_ctrls_1.writeEnergy             1322295840                       # Energy for write commands per rank (pJ)
system.mem_ctrls_1.refreshEnergy          73619654160                       # Energy for refresh commands per rank (pJ)
system.mem_ctrls_1.actBackEnergy         245764978245                       # Energy for active background per rank (pJ)
system.mem_ctrls_1.preBackEnergy         460704035250                       # Energy for precharge background per rank (pJ)
system.mem_ctrls_1.totalEnergy           787936434150                       # Total energy per rank (pJ)
system.mem_ctrls_1.averagePower            699.054715                       # Core power per rank (mW)
system.mem_ctrls_1.memoryStateTime::IDLE 764918691000                       # Time in different power states
system.mem_ctrls_1.memoryStateTime::REF   37637860000                       # Time in different power states
system.mem_ctrls_1.memoryStateTime::PRE_PDN            0                       # Time in different power states
system.mem_ctrls_1.memoryStateTime::ACT  324589045250                       # Time in different power states
system.mem_ctrls_1.memoryStateTime::ACT_PDN            0                       # Time in different power states
system.cpu_voltage_domain.voltage                   1                       # Voltage in Volts
system.cpu_clk_domain.clock                       500                       # Clock period in ticks
system.cpu.apic_clk_domain.clock                 8000                       # Clock period in ticks
system.cpu.workload.num_syscalls                   86                       # Number of system calls
system.cpu.numCycles                       2254302957                       # number of cpu cycles simulated
system.cpu.numWorkItemsStarted                      0                       # number of work items this cpu started
system.cpu.numWorkItemsCompleted                    0                       # number of work items this cpu completed
system.cpu.committedInsts                   500000001                       # Number of instructions committed
system.cpu.committedOps                     730450447                       # Number of ops (including micro ops) committed
system.cpu.num_int_alu_accesses             729688907                       # Number of integer alu accesses
system.cpu.num_fp_alu_accesses                    663                       # Number of float alu accesses
system.cpu.num_func_calls                     1453961                       # number of times a function call or return occured
system.cpu.num_conditional_control_insts     31770496                       # number of instructions that are conditional controls
system.cpu.num_int_insts                    729688907                       # number of integer instructions
system.cpu.num_fp_insts                           663                       # number of float instructions
system.cpu.num_int_register_reads          1698743410                       # number of times the integer registers were read
system.cpu.num_int_register_writes          621892952                       # number of times the integer registers were written
system.cpu.num_fp_register_reads                 1009                       # number of times the floating registers were read
system.cpu.num_fp_register_writes                 429                       # number of times the floating registers were written
system.cpu.num_cc_register_reads            180840558                       # number of times the CC registers were read
system.cpu.num_cc_register_writes           276245127                       # number of times the CC registers were written
system.cpu.num_mem_refs                     295985459                       # number of memory refs
system.cpu.num_load_insts                   225946750                       # Number of load instructions
system.cpu.num_store_insts                   70038709                       # Number of store instructions
system.cpu.num_idle_cycles                          0                       # Number of idle cycles
system.cpu.num_busy_cycles                 2254302957                       # Number of busy cycles
system.cpu.not_idle_fraction                        1                       # Percentage of non-idle cycles
system.cpu.idle_fraction                            0                       # Percentage of idle cycles
system.cpu.Branches                          37843296                       # Number of branches fetched
system.cpu.op_class::No_OpClass                 94739      0.01%      0.01% # Class of executed instruction
system.cpu.op_class::IntAlu                 434349070     59.46%     59.48% # Class of executed instruction
system.cpu.op_class::IntMult                    20662      0.00%     59.48% # Class of executed instruction
system.cpu.op_class::IntDiv                       119      0.00%     59.48% # Class of executed instruction
system.cpu.op_class::FloatAdd                     398      0.00%     59.48% # Class of executed instruction
system.cpu.op_class::FloatCmp                       0      0.00%     59.48% # Class of executed instruction
system.cpu.op_class::FloatCvt                       0      0.00%     59.48% # Class of executed instruction
system.cpu.op_class::FloatMult                      0      0.00%     59.48% # Class of executed instruction
system.cpu.op_class::FloatDiv                       0      0.00%     59.48% # Class of executed instruction
system.cpu.op_class::FloatSqrt                      0      0.00%     59.48% # Class of executed instruction
system.cpu.op_class::SimdAdd                        0      0.00%     59.48% # Class of executed instruction
system.cpu.op_class::SimdAddAcc                     0      0.00%     59.48% # Class of executed instruction
system.cpu.op_class::SimdAlu                        0      0.00%     59.48% # Class of executed instruction
system.cpu.op_class::SimdCmp                        0      0.00%     59.48% # Class of executed instruction
system.cpu.op_class::SimdCvt                        0      0.00%     59.48% # Class of executed instruction
system.cpu.op_class::SimdMisc                       0      0.00%     59.48% # Class of executed instruction
system.cpu.op_class::SimdMult                       0      0.00%     59.48% # Class of executed instruction
system.cpu.op_class::SimdMultAcc                    0      0.00%     59.48% # Class of executed instruction
system.cpu.op_class::SimdShift                      0      0.00%     59.48% # Class of executed instruction
system.cpu.op_class::SimdShiftAcc                   0      0.00%     59.48% # Class of executed instruction
system.cpu.op_class::SimdSqrt                       0      0.00%     59.48% # Class of executed instruction
system.cpu.op_class::SimdFloatAdd                   0      0.00%     59.48% # Class of executed instruction
system.cpu.op_class::SimdFloatAlu                   0      0.00%     59.48% # Class of executed instruction
system.cpu.op_class::SimdFloatCmp                   0      0.00%     59.48% # Class of executed instruction
system.cpu.op_class::SimdFloatCvt                   0      0.00%     59.48% # Class of executed instruction
system.cpu.op_class::SimdFloatDiv                   0      0.00%     59.48% # Class of executed instruction
system.cpu.op_class::SimdFloatMisc                  0      0.00%     59.48% # Class of executed instruction
system.cpu.op_class::SimdFloatMult                  0      0.00%     59.48% # Class of executed instruction
system.cpu.op_class::SimdFloatMultAcc               0      0.00%     59.48% # Class of executed instruction
system.cpu.op_class::SimdFloatSqrt                  0      0.00%     59.48% # Class of executed instruction
system.cpu.op_class::MemRead                225946750     30.93%     90.41% # Class of executed instruction
system.cpu.op_class::MemWrite                70038709      9.59%    100.00% # Class of executed instruction
system.cpu.op_class::IprAccess                      0      0.00%    100.00% # Class of executed instruction
system.cpu.op_class::InstPrefetch                   0      0.00%    100.00% # Class of executed instruction
system.cpu.op_class::total                  730450447                       # Class of executed instruction
system.cpu.dcache.tags.replacements           7464995                       # number of replacements
system.cpu.dcache.tags.tagsinuse            31.999901                       # Cycle average of tags in use
system.cpu.dcache.tags.total_refs           288520440                       # Total number of references to valid blocks.
system.cpu.dcache.tags.sampled_refs           7465027                       # Sample count of references to valid blocks.
system.cpu.dcache.tags.avg_refs             38.649618                       # Average number of references to valid blocks.
system.cpu.dcache.tags.warmup_cycle          14490500                       # Cycle when the warmup percentage was hit.
system.cpu.dcache.tags.occ_blocks::cpu.data    31.999901                       # Average occupied blocks per requestor
system.cpu.dcache.tags.occ_percent::cpu.data     0.999997                       # Average percentage of cache occupancy
system.cpu.dcache.tags.occ_percent::total     0.999997                       # Average percentage of cache occupancy
system.cpu.dcache.tags.occ_task_id_blocks::1024           32                       # Occupied blocks per task id
system.cpu.dcache.tags.age_task_id_blocks_1024::0            1                       # Occupied blocks per task id
system.cpu.dcache.tags.age_task_id_blocks_1024::1            7                       # Occupied blocks per task id
system.cpu.dcache.tags.age_task_id_blocks_1024::2           20                       # Occupied blocks per task id
system.cpu.dcache.tags.age_task_id_blocks_1024::3            4                       # Occupied blocks per task id
system.cpu.dcache.tags.occ_task_id_percent::1024            1                       # Percentage of cache occupancy per task id
system.cpu.dcache.tags.tag_accesses         599435961                       # Number of tag accesses
system.cpu.dcache.tags.data_accesses        599435961                       # Number of data accesses
system.cpu.dcache.ReadReq_hits::cpu.data    219787928                       # number of ReadReq hits
system.cpu.dcache.ReadReq_hits::total       219787928                       # number of ReadReq hits
system.cpu.dcache.WriteReq_hits::cpu.data     68732512                       # number of WriteReq hits
system.cpu.dcache.WriteReq_hits::total       68732512                       # number of WriteReq hits
system.cpu.dcache.demand_hits::cpu.data     288520440                       # number of demand (read+write) hits
system.cpu.dcache.demand_hits::total        288520440                       # number of demand (read+write) hits
system.cpu.dcache.overall_hits::cpu.data    288520440                       # number of overall hits
system.cpu.dcache.overall_hits::total       288520440                       # number of overall hits
system.cpu.dcache.ReadReq_misses::cpu.data      6142445                       # number of ReadReq misses
system.cpu.dcache.ReadReq_misses::total       6142445                       # number of ReadReq misses
system.cpu.dcache.WriteReq_misses::cpu.data      1306198                       # number of WriteReq misses
system.cpu.dcache.WriteReq_misses::total      1306198                       # number of WriteReq misses
system.cpu.dcache.SoftPFReq_misses::cpu.data        16384                       # number of SoftPFReq misses
system.cpu.dcache.SoftPFReq_misses::total        16384                       # number of SoftPFReq misses
system.cpu.dcache.demand_misses::cpu.data      7448643                       # number of demand (read+write) misses
system.cpu.dcache.demand_misses::total        7448643                       # number of demand (read+write) misses
system.cpu.dcache.overall_misses::cpu.data      7465027                       # number of overall misses
system.cpu.dcache.overall_misses::total       7465027                       # number of overall misses
system.cpu.dcache.ReadReq_miss_latency::cpu.data 110357044500                       # number of ReadReq miss cycles
system.cpu.dcache.ReadReq_miss_latency::total 110357044500                       # number of ReadReq miss cycles
system.cpu.dcache.WriteReq_miss_latency::cpu.data  40754182500                       # number of WriteReq miss cycles
system.cpu.dcache.WriteReq_miss_latency::total  40754182500                       # number of WriteReq miss cycles
system.cpu.dcache.demand_miss_latency::cpu.data 151111227000                       # number of demand (read+write) miss cycles
system.cpu.dcache.demand_miss_latency::total 151111227000                       # number of demand (read+write) miss cycles
system.cpu.dcache.overall_miss_latency::cpu.data 151111227000                       # number of overall miss cycles
system.cpu.dcache.overall_miss_latency::total 151111227000                       # number of overall miss cycles
system.cpu.dcache.ReadReq_accesses::cpu.data    225930373                       # number of ReadReq accesses(hits+misses)
system.cpu.dcache.ReadReq_accesses::total    225930373                       # number of ReadReq accesses(hits+misses)
system.cpu.dcache.WriteReq_accesses::cpu.data     70038710                       # number of WriteReq accesses(hits+misses)
system.cpu.dcache.WriteReq_accesses::total     70038710                       # number of WriteReq accesses(hits+misses)
system.cpu.dcache.SoftPFReq_accesses::cpu.data        16384                       # number of SoftPFReq accesses(hits+misses)
system.cpu.dcache.SoftPFReq_accesses::total        16384                       # number of SoftPFReq accesses(hits+misses)
system.cpu.dcache.demand_accesses::cpu.data    295969083                       # number of demand (read+write) accesses
system.cpu.dcache.demand_accesses::total    295969083                       # number of demand (read+write) accesses
system.cpu.dcache.overall_accesses::cpu.data    295985467                       # number of overall (read+write) accesses
system.cpu.dcache.overall_accesses::total    295985467                       # number of overall (read+write) accesses
system.cpu.dcache.ReadReq_miss_rate::cpu.data     0.027187                       # miss rate for ReadReq accesses
system.cpu.dcache.ReadReq_miss_rate::total     0.027187                       # miss rate for ReadReq accesses
system.cpu.dcache.WriteReq_miss_rate::cpu.data     0.018650                       # miss rate for WriteReq accesses
system.cpu.dcache.WriteReq_miss_rate::total     0.018650                       # miss rate for WriteReq accesses
system.cpu.dcache.SoftPFReq_miss_rate::cpu.data            1                       # miss rate for SoftPFReq accesses
system.cpu.dcache.SoftPFReq_miss_rate::total            1                       # miss rate for SoftPFReq accesses
system.cpu.dcache.demand_miss_rate::cpu.data     0.025167                       # miss rate for demand accesses
system.cpu.dcache.demand_miss_rate::total     0.025167                       # miss rate for demand accesses
system.cpu.dcache.overall_miss_rate::cpu.data     0.025221                       # miss rate for overall accesses
system.cpu.dcache.overall_miss_rate::total     0.025221                       # miss rate for overall accesses
system.cpu.dcache.ReadReq_avg_miss_latency::cpu.data 17966.305681                       # average ReadReq miss latency
system.cpu.dcache.ReadReq_avg_miss_latency::total 17966.305681                       # average ReadReq miss latency
system.cpu.dcache.WriteReq_avg_miss_latency::cpu.data 31200.616216                       # average WriteReq miss latency
system.cpu.dcache.WriteReq_avg_miss_latency::total 31200.616216                       # average WriteReq miss latency
system.cpu.dcache.demand_avg_miss_latency::cpu.data 20287.081419                       # average overall miss latency
system.cpu.dcache.demand_avg_miss_latency::total 20287.081419                       # average overall miss latency
system.cpu.dcache.overall_avg_miss_latency::cpu.data 20242.555988                       # average overall miss latency
system.cpu.dcache.overall_avg_miss_latency::total 20242.555988                       # average overall miss latency
system.cpu.dcache.blocked_cycles::no_mshrs        65936                       # number of cycles access was blocked
system.cpu.dcache.blocked_cycles::no_targets            0                       # number of cycles access was blocked
system.cpu.dcache.blocked::no_mshrs              1029                       # number of cycles access was blocked
system.cpu.dcache.blocked::no_targets               0                       # number of cycles access was blocked
system.cpu.dcache.avg_blocked_cycles::no_mshrs    64.077745                       # average number of cycles each access was blocked
system.cpu.dcache.avg_blocked_cycles::no_targets          nan                       # average number of cycles each access was blocked
system.cpu.dcache.fast_writes                       0                       # number of fast writes performed
system.cpu.dcache.cache_copies                      0                       # number of cache copies performed
system.cpu.dcache.writebacks::writebacks      4064620                       # number of writebacks
system.cpu.dcache.writebacks::total           4064620                       # number of writebacks
system.cpu.dcache.ReadReq_mshr_misses::cpu.data      6142445                       # number of ReadReq MSHR misses
system.cpu.dcache.ReadReq_mshr_misses::total      6142445                       # number of ReadReq MSHR misses
system.cpu.dcache.WriteReq_mshr_misses::cpu.data      1306198                       # number of WriteReq MSHR misses
system.cpu.dcache.WriteReq_mshr_misses::total      1306198                       # number of WriteReq MSHR misses
system.cpu.dcache.SoftPFReq_mshr_misses::cpu.data        16384                       # number of SoftPFReq MSHR misses
system.cpu.dcache.SoftPFReq_mshr_misses::total        16384                       # number of SoftPFReq MSHR misses
system.cpu.dcache.demand_mshr_misses::cpu.data      7448643                       # number of demand (read+write) MSHR misses
system.cpu.dcache.demand_mshr_misses::total      7448643                       # number of demand (read+write) MSHR misses
system.cpu.dcache.overall_mshr_misses::cpu.data      7465027                       # number of overall MSHR misses
system.cpu.dcache.overall_mshr_misses::total      7465027                       # number of overall MSHR misses
system.cpu.dcache.ReadReq_mshr_miss_latency::cpu.data 104214599500                       # number of ReadReq MSHR miss cycles
system.cpu.dcache.ReadReq_mshr_miss_latency::total 104214599500                       # number of ReadReq MSHR miss cycles
system.cpu.dcache.WriteReq_mshr_miss_latency::cpu.data  39447984500                       # number of WriteReq MSHR miss cycles
system.cpu.dcache.WriteReq_mshr_miss_latency::total  39447984500                       # number of WriteReq MSHR miss cycles
system.cpu.dcache.SoftPFReq_mshr_miss_latency::cpu.data   1291001998                       # number of SoftPFReq MSHR miss cycles
system.cpu.dcache.SoftPFReq_mshr_miss_latency::total   1291001998                       # number of SoftPFReq MSHR miss cycles
system.cpu.dcache.demand_mshr_miss_latency::cpu.data 143662584000                       # number of demand (read+write) MSHR miss cycles
system.cpu.dcache.demand_mshr_miss_latency::total 143662584000                       # number of demand (read+write) MSHR miss cycles
system.cpu.dcache.overall_mshr_miss_latency::cpu.data 144953585998                       # number of overall MSHR miss cycles
system.cpu.dcache.overall_mshr_miss_latency::total 144953585998                       # number of overall MSHR miss cycles
system.cpu.dcache.ReadReq_mshr_miss_rate::cpu.data     0.027187                       # mshr miss rate for ReadReq accesses
system.cpu.dcache.ReadReq_mshr_miss_rate::total     0.027187                       # mshr miss rate for ReadReq accesses
system.cpu.dcache.WriteReq_mshr_miss_rate::cpu.data     0.018650                       # mshr miss rate for WriteReq accesses
system.cpu.dcache.WriteReq_mshr_miss_rate::total     0.018650                       # mshr miss rate for WriteReq accesses
system.cpu.dcache.SoftPFReq_mshr_miss_rate::cpu.data            1                       # mshr miss rate for SoftPFReq accesses
system.cpu.dcache.SoftPFReq_mshr_miss_rate::total            1                       # mshr miss rate for SoftPFReq accesses
system.cpu.dcache.demand_mshr_miss_rate::cpu.data     0.025167                       # mshr miss rate for demand accesses
system.cpu.dcache.demand_mshr_miss_rate::total     0.025167                       # mshr miss rate for demand accesses
system.cpu.dcache.overall_mshr_miss_rate::cpu.data     0.025221                       # mshr miss rate for overall accesses
system.cpu.dcache.overall_mshr_miss_rate::total     0.025221                       # mshr miss rate for overall accesses
system.cpu.dcache.ReadReq_avg_mshr_miss_latency::cpu.data 16966.305681                       # average ReadReq mshr miss latency
system.cpu.dcache.ReadReq_avg_mshr_miss_latency::total 16966.305681                       # average ReadReq mshr miss latency
system.cpu.dcache.WriteReq_avg_mshr_miss_latency::cpu.data 30200.616216                       # average WriteReq mshr miss latency
system.cpu.dcache.WriteReq_avg_mshr_miss_latency::total 30200.616216                       # average WriteReq mshr miss latency
system.cpu.dcache.SoftPFReq_avg_mshr_miss_latency::cpu.data 78796.508667                       # average SoftPFReq mshr miss latency
system.cpu.dcache.SoftPFReq_avg_mshr_miss_latency::total 78796.508667                       # average SoftPFReq mshr miss latency
system.cpu.dcache.demand_avg_mshr_miss_latency::cpu.data 19287.081419                       # average overall mshr miss latency
system.cpu.dcache.demand_avg_mshr_miss_latency::total 19287.081419                       # average overall mshr miss latency
system.cpu.dcache.overall_avg_mshr_miss_latency::cpu.data 19417.690786                       # average overall mshr miss latency
system.cpu.dcache.overall_avg_mshr_miss_latency::total 19417.690786                       # average overall mshr miss latency
system.cpu.dcache.no_allocate_misses                0                       # Number of misses that were no-allocate
system.cpu.dtb_walker_cache.tags.replacements            0                       # number of replacements
system.cpu.dtb_walker_cache.tags.tagsinuse            0                       # Cycle average of tags in use
system.cpu.dtb_walker_cache.tags.total_refs            0                       # Total number of references to valid blocks.
system.cpu.dtb_walker_cache.tags.sampled_refs            0                       # Sample count of references to valid blocks.
system.cpu.dtb_walker_cache.tags.avg_refs          nan                       # Average number of references to valid blocks.
system.cpu.dtb_walker_cache.tags.warmup_cycle            0                       # Cycle when the warmup percentage was hit.
system.cpu.dtb_walker_cache.tags.tag_accesses            0                       # Number of tag accesses
system.cpu.dtb_walker_cache.tags.data_accesses            0                       # Number of data accesses
system.cpu.dtb_walker_cache.blocked_cycles::no_mshrs            0                       # number of cycles access was blocked
system.cpu.dtb_walker_cache.blocked_cycles::no_targets            0                       # number of cycles access was blocked
system.cpu.dtb_walker_cache.blocked::no_mshrs            0                       # number of cycles access was blocked
system.cpu.dtb_walker_cache.blocked::no_targets            0                       # number of cycles access was blocked
system.cpu.dtb_walker_cache.avg_blocked_cycles::no_mshrs          nan                       # average number of cycles each access was blocked
system.cpu.dtb_walker_cache.avg_blocked_cycles::no_targets          nan                       # average number of cycles each access was blocked
system.cpu.dtb_walker_cache.fast_writes             0                       # number of fast writes performed
system.cpu.dtb_walker_cache.cache_copies            0                       # number of cache copies performed
system.cpu.dtb_walker_cache.no_allocate_misses            0                       # Number of misses that were no-allocate
system.cpu.icache.tags.replacements                45                       # number of replacements
system.cpu.icache.tags.tagsinuse           662.411506                       # Cycle average of tags in use
system.cpu.icache.tags.total_refs           687396869                       # Total number of references to valid blocks.
system.cpu.icache.tags.sampled_refs               994                       # Sample count of references to valid blocks.
system.cpu.icache.tags.avg_refs          691546.145875                       # Average number of references to valid blocks.
system.cpu.icache.tags.warmup_cycle                 0                       # Cycle when the warmup percentage was hit.
system.cpu.icache.tags.occ_blocks::cpu.inst   662.411506                       # Average occupied blocks per requestor
system.cpu.icache.tags.occ_percent::cpu.inst     0.323443                       # Average percentage of cache occupancy
system.cpu.icache.tags.occ_percent::total     0.323443                       # Average percentage of cache occupancy
system.cpu.icache.tags.occ_task_id_blocks::1024          949                       # Occupied blocks per task id
system.cpu.icache.tags.age_task_id_blocks_1024::1            7                       # Occupied blocks per task id
system.cpu.icache.tags.age_task_id_blocks_1024::3           25                       # Occupied blocks per task id
system.cpu.icache.tags.age_task_id_blocks_1024::4          917                       # Occupied blocks per task id
system.cpu.icache.tags.occ_task_id_percent::1024     0.463379                       # Percentage of cache occupancy per task id
system.cpu.icache.tags.tag_accesses        1374796720                       # Number of tag accesses
system.cpu.icache.tags.data_accesses       1374796720                       # Number of data accesses
system.cpu.icache.ReadReq_hits::cpu.inst    687396869                       # number of ReadReq hits
system.cpu.icache.ReadReq_hits::total       687396869                       # number of ReadReq hits
system.cpu.icache.demand_hits::cpu.inst     687396869                       # number of demand (read+write) hits
system.cpu.icache.demand_hits::total        687396869                       # number of demand (read+write) hits
system.cpu.icache.overall_hits::cpu.inst    687396869                       # number of overall hits
system.cpu.icache.overall_hits::total       687396869                       # number of overall hits
system.cpu.icache.ReadReq_misses::cpu.inst          994                       # number of ReadReq misses
system.cpu.icache.ReadReq_misses::total           994                       # number of ReadReq misses
system.cpu.icache.demand_misses::cpu.inst          994                       # number of demand (read+write) misses
system.cpu.icache.demand_misses::total            994                       # number of demand (read+write) misses
system.cpu.icache.overall_misses::cpu.inst          994                       # number of overall misses
system.cpu.icache.overall_misses::total           994                       # number of overall misses
system.cpu.icache.ReadReq_miss_latency::cpu.inst     77199500                       # number of ReadReq miss cycles
system.cpu.icache.ReadReq_miss_latency::total     77199500                       # number of ReadReq miss cycles
system.cpu.icache.demand_miss_latency::cpu.inst     77199500                       # number of demand (read+write) miss cycles
system.cpu.icache.demand_miss_latency::total     77199500                       # number of demand (read+write) miss cycles
system.cpu.icache.overall_miss_latency::cpu.inst     77199500                       # number of overall miss cycles
system.cpu.icache.overall_miss_latency::total     77199500                       # number of overall miss cycles
system.cpu.icache.ReadReq_accesses::cpu.inst    687397863                       # number of ReadReq accesses(hits+misses)
system.cpu.icache.ReadReq_accesses::total    687397863                       # number of ReadReq accesses(hits+misses)
system.cpu.icache.demand_accesses::cpu.inst    687397863                       # number of demand (read+write) accesses
system.cpu.icache.demand_accesses::total    687397863                       # number of demand (read+write) accesses
system.cpu.icache.overall_accesses::cpu.inst    687397863                       # number of overall (read+write) accesses
system.cpu.icache.overall_accesses::total    687397863                       # number of overall (read+write) accesses
system.cpu.icache.ReadReq_miss_rate::cpu.inst     0.000001                       # miss rate for ReadReq accesses
system.cpu.icache.ReadReq_miss_rate::total     0.000001                       # miss rate for ReadReq accesses
system.cpu.icache.demand_miss_rate::cpu.inst     0.000001                       # miss rate for demand accesses
system.cpu.icache.demand_miss_rate::total     0.000001                       # miss rate for demand accesses
system.cpu.icache.overall_miss_rate::cpu.inst     0.000001                       # miss rate for overall accesses
system.cpu.icache.overall_miss_rate::total     0.000001                       # miss rate for overall accesses
system.cpu.icache.ReadReq_avg_miss_latency::cpu.inst 77665.492958                       # average ReadReq miss latency
system.cpu.icache.ReadReq_avg_miss_latency::total 77665.492958                       # average ReadReq miss latency
system.cpu.icache.demand_avg_miss_latency::cpu.inst 77665.492958                       # average overall miss latency
system.cpu.icache.demand_avg_miss_latency::total 77665.492958                       # average overall miss latency
system.cpu.icache.overall_avg_miss_latency::cpu.inst 77665.492958                       # average overall miss latency
system.cpu.icache.overall_avg_miss_latency::total 77665.492958                       # average overall miss latency
system.cpu.icache.blocked_cycles::no_mshrs            0                       # number of cycles access was blocked
system.cpu.icache.blocked_cycles::no_targets            0                       # number of cycles access was blocked
system.cpu.icache.blocked::no_mshrs                 0                       # number of cycles access was blocked
system.cpu.icache.blocked::no_targets               0                       # number of cycles access was blocked
system.cpu.icache.avg_blocked_cycles::no_mshrs          nan                       # average number of cycles each access was blocked
system.cpu.icache.avg_blocked_cycles::no_targets          nan                       # average number of cycles each access was blocked
system.cpu.icache.fast_writes                       0                       # number of fast writes performed
system.cpu.icache.cache_copies                      0                       # number of cache copies performed
system.cpu.icache.writebacks::writebacks           45                       # number of writebacks
system.cpu.icache.writebacks::total                45                       # number of writebacks
system.cpu.icache.ReadReq_mshr_misses::cpu.inst          994                       # number of ReadReq MSHR misses
system.cpu.icache.ReadReq_mshr_misses::total          994                       # number of ReadReq MSHR misses
system.cpu.icache.demand_mshr_misses::cpu.inst          994                       # number of demand (read+write) MSHR misses
system.cpu.icache.demand_mshr_misses::total          994                       # number of demand (read+write) MSHR misses
system.cpu.icache.overall_mshr_misses::cpu.inst          994                       # number of overall MSHR misses
system.cpu.icache.overall_mshr_misses::total          994                       # number of overall MSHR misses
system.cpu.icache.ReadReq_mshr_miss_latency::cpu.inst     76205500                       # number of ReadReq MSHR miss cycles
system.cpu.icache.ReadReq_mshr_miss_latency::total     76205500                       # number of ReadReq MSHR miss cycles
system.cpu.icache.demand_mshr_miss_latency::cpu.inst     76205500                       # number of demand (read+write) MSHR miss cycles
system.cpu.icache.demand_mshr_miss_latency::total     76205500                       # number of demand (read+write) MSHR miss cycles
system.cpu.icache.overall_mshr_miss_latency::cpu.inst     76205500                       # number of overall MSHR miss cycles
system.cpu.icache.overall_mshr_miss_latency::total     76205500                       # number of overall MSHR miss cycles
system.cpu.icache.ReadReq_mshr_miss_rate::cpu.inst     0.000001                       # mshr miss rate for ReadReq accesses
system.cpu.icache.ReadReq_mshr_miss_rate::total     0.000001                       # mshr miss rate for ReadReq accesses
system.cpu.icache.demand_mshr_miss_rate::cpu.inst     0.000001                       # mshr miss rate for demand accesses
system.cpu.icache.demand_mshr_miss_rate::total     0.000001                       # mshr miss rate for demand accesses
system.cpu.icache.overall_mshr_miss_rate::cpu.inst     0.000001                       # mshr miss rate for overall accesses
system.cpu.icache.overall_mshr_miss_rate::total     0.000001                       # mshr miss rate for overall accesses
system.cpu.icache.ReadReq_avg_mshr_miss_latency::cpu.inst 76665.492958                       # average ReadReq mshr miss latency
system.cpu.icache.ReadReq_avg_mshr_miss_latency::total 76665.492958                       # average ReadReq mshr miss latency
system.cpu.icache.demand_avg_mshr_miss_latency::cpu.inst 76665.492958                       # average overall mshr miss latency
system.cpu.icache.demand_avg_mshr_miss_latency::total 76665.492958                       # average overall mshr miss latency
system.cpu.icache.overall_avg_mshr_miss_latency::cpu.inst 76665.492958                       # average overall mshr miss latency
system.cpu.icache.overall_avg_mshr_miss_latency::total 76665.492958                       # average overall mshr miss latency
system.cpu.icache.no_allocate_misses                0                       # Number of misses that were no-allocate
system.cpu.itb_walker_cache.tags.replacements            0                       # number of replacements
system.cpu.itb_walker_cache.tags.tagsinuse            0                       # Cycle average of tags in use
system.cpu.itb_walker_cache.tags.total_refs            0                       # Total number of references to valid blocks.
system.cpu.itb_walker_cache.tags.sampled_refs            0                       # Sample count of references to valid blocks.
system.cpu.itb_walker_cache.tags.avg_refs          nan                       # Average number of references to valid blocks.
system.cpu.itb_walker_cache.tags.warmup_cycle            0                       # Cycle when the warmup percentage was hit.
system.cpu.itb_walker_cache.tags.tag_accesses            0                       # Number of tag accesses
system.cpu.itb_walker_cache.tags.data_accesses            0                       # Number of data accesses
system.cpu.itb_walker_cache.blocked_cycles::no_mshrs            0                       # number of cycles access was blocked
system.cpu.itb_walker_cache.blocked_cycles::no_targets            0                       # number of cycles access was blocked
system.cpu.itb_walker_cache.blocked::no_mshrs            0                       # number of cycles access was blocked
system.cpu.itb_walker_cache.blocked::no_targets            0                       # number of cycles access was blocked
system.cpu.itb_walker_cache.avg_blocked_cycles::no_mshrs          nan                       # average number of cycles each access was blocked
system.cpu.itb_walker_cache.avg_blocked_cycles::no_targets          nan                       # average number of cycles each access was blocked
system.cpu.itb_walker_cache.fast_writes             0                       # number of fast writes performed
system.cpu.itb_walker_cache.cache_copies            0                       # number of cache copies performed
system.cpu.itb_walker_cache.no_allocate_misses            0                       # Number of misses that were no-allocate
system.l2.tags.replacements                    748255                       # number of replacements
system.l2.tags.tagsinuse                 16327.768231                       # Cycle average of tags in use
system.l2.tags.total_refs                    12857482                       # Total number of references to valid blocks.
system.l2.tags.sampled_refs                    764635                       # Sample count of references to valid blocks.
system.l2.tags.avg_refs                     16.815189                       # Average number of references to valid blocks.
system.l2.tags.warmup_cycle                9882136500                       # Cycle when the warmup percentage was hit.
system.l2.tags.occ_blocks::writebacks     8113.129615                       # Average occupied blocks per requestor
system.l2.tags.occ_blocks::cpu.inst          3.958583                       # Average occupied blocks per requestor
system.l2.tags.occ_blocks::cpu.data       8210.680034                       # Average occupied blocks per requestor
system.l2.tags.occ_percent::writebacks       0.495186                       # Average percentage of cache occupancy
system.l2.tags.occ_percent::cpu.inst         0.000242                       # Average percentage of cache occupancy
system.l2.tags.occ_percent::cpu.data         0.501140                       # Average percentage of cache occupancy
system.l2.tags.occ_percent::total            0.996568                       # Average percentage of cache occupancy
system.l2.tags.occ_task_id_blocks::1024         16380                       # Occupied blocks per task id
system.l2.tags.age_task_id_blocks_1024::1           10                       # Occupied blocks per task id
system.l2.tags.age_task_id_blocks_1024::2           20                       # Occupied blocks per task id
system.l2.tags.age_task_id_blocks_1024::3          342                       # Occupied blocks per task id
system.l2.tags.age_task_id_blocks_1024::4        16008                       # Occupied blocks per task id
system.l2.tags.occ_task_id_percent::1024     0.999756                       # Percentage of cache occupancy per task id
system.l2.tags.tag_accesses                  17001894                       # Number of tag accesses
system.l2.tags.data_accesses                 17001894                       # Number of data accesses
system.l2.WritebackDirty_hits::writebacks      4064620                       # number of WritebackDirty hits
system.l2.WritebackDirty_hits::total          4064620                       # number of WritebackDirty hits
system.l2.WritebackClean_hits::writebacks           45                       # number of WritebackClean hits
system.l2.WritebackClean_hits::total               45                       # number of WritebackClean hits
system.l2.ReadExReq_hits::cpu.data             987112                       # number of ReadExReq hits
system.l2.ReadExReq_hits::total                987112                       # number of ReadExReq hits
system.l2.ReadCleanReq_hits::cpu.inst               1                       # number of ReadCleanReq hits
system.l2.ReadCleanReq_hits::total                  1                       # number of ReadCleanReq hits
system.l2.ReadSharedReq_hits::cpu.data        5715997                       # number of ReadSharedReq hits
system.l2.ReadSharedReq_hits::total           5715997                       # number of ReadSharedReq hits
system.l2.demand_hits::cpu.inst                     1                       # number of demand (read+write) hits
system.l2.demand_hits::cpu.data               6703109                       # number of demand (read+write) hits
system.l2.demand_hits::total                  6703110                       # number of demand (read+write) hits
system.l2.overall_hits::cpu.inst                    1                       # number of overall hits
system.l2.overall_hits::cpu.data              6703109                       # number of overall hits
system.l2.overall_hits::total                 6703110                       # number of overall hits
system.l2.ReadExReq_misses::cpu.data           319086                       # number of ReadExReq misses
system.l2.ReadExReq_misses::total              319086                       # number of ReadExReq misses
system.l2.ReadCleanReq_misses::cpu.inst           993                       # number of ReadCleanReq misses
system.l2.ReadCleanReq_misses::total              993                       # number of ReadCleanReq misses
system.l2.ReadSharedReq_misses::cpu.data       442832                       # number of ReadSharedReq misses
system.l2.ReadSharedReq_misses::total          442832                       # number of ReadSharedReq misses
system.l2.demand_misses::cpu.inst                 993                       # number of demand (read+write) misses
system.l2.demand_misses::cpu.data              761918                       # number of demand (read+write) misses
system.l2.demand_misses::total                 762911                       # number of demand (read+write) misses
system.l2.overall_misses::cpu.inst                993                       # number of overall misses
system.l2.overall_misses::cpu.data             761918                       # number of overall misses
system.l2.overall_misses::total                762911                       # number of overall misses
system.l2.ReadExReq_miss_latency::cpu.data  27123944500                       # number of ReadExReq miss cycles
system.l2.ReadExReq_miss_latency::total   27123944500                       # number of ReadExReq miss cycles
system.l2.ReadCleanReq_miss_latency::cpu.inst     74700000                       # number of ReadCleanReq miss cycles
system.l2.ReadCleanReq_miss_latency::total     74700000                       # number of ReadCleanReq miss cycles
system.l2.ReadSharedReq_miss_latency::cpu.data  36248787500                       # number of ReadSharedReq miss cycles
system.l2.ReadSharedReq_miss_latency::total  36248787500                       # number of ReadSharedReq miss cycles
system.l2.demand_miss_latency::cpu.inst      74700000                       # number of demand (read+write) miss cycles
system.l2.demand_miss_latency::cpu.data   63372732000                       # number of demand (read+write) miss cycles
system.l2.demand_miss_latency::total      63447432000                       # number of demand (read+write) miss cycles
system.l2.overall_miss_latency::cpu.inst     74700000                       # number of overall miss cycles
system.l2.overall_miss_latency::cpu.data  63372732000                       # number of overall miss cycles
system.l2.overall_miss_latency::total     63447432000                       # number of overall miss cycles
system.l2.WritebackDirty_accesses::writebacks      4064620                       # number of WritebackDirty accesses(hits+misses)
system.l2.WritebackDirty_accesses::total      4064620                       # number of WritebackDirty accesses(hits+misses)
system.l2.WritebackClean_accesses::writebacks           45                       # number of WritebackClean accesses(hits+misses)
system.l2.WritebackClean_accesses::total           45                       # number of WritebackClean accesses(hits+misses)
system.l2.ReadExReq_accesses::cpu.data        1306198                       # number of ReadExReq accesses(hits+misses)
system.l2.ReadExReq_accesses::total           1306198                       # number of ReadExReq accesses(hits+misses)
system.l2.ReadCleanReq_accesses::cpu.inst          994                       # number of ReadCleanReq accesses(hits+misses)
system.l2.ReadCleanReq_accesses::total            994                       # number of ReadCleanReq accesses(hits+misses)
system.l2.ReadSharedReq_accesses::cpu.data      6158829                       # number of ReadSharedReq accesses(hits+misses)
system.l2.ReadSharedReq_accesses::total       6158829                       # number of ReadSharedReq accesses(hits+misses)
system.l2.demand_accesses::cpu.inst               994                       # number of demand (read+write) accesses
system.l2.demand_accesses::cpu.data           7465027                       # number of demand (read+write) accesses
system.l2.demand_accesses::total              7466021                       # number of demand (read+write) accesses
system.l2.overall_accesses::cpu.inst              994                       # number of overall (read+write) accesses
system.l2.overall_accesses::cpu.data          7465027                       # number of overall (read+write) accesses
system.l2.overall_accesses::total             7466021                       # number of overall (read+write) accesses
system.l2.ReadExReq_miss_rate::cpu.data      0.244286                       # miss rate for ReadExReq accesses
system.l2.ReadExReq_miss_rate::total         0.244286                       # miss rate for ReadExReq accesses
system.l2.ReadCleanReq_miss_rate::cpu.inst     0.998994                       # miss rate for ReadCleanReq accesses
system.l2.ReadCleanReq_miss_rate::total      0.998994                       # miss rate for ReadCleanReq accesses
system.l2.ReadSharedReq_miss_rate::cpu.data     0.071902                       # miss rate for ReadSharedReq accesses
system.l2.ReadSharedReq_miss_rate::total     0.071902                       # miss rate for ReadSharedReq accesses
system.l2.demand_miss_rate::cpu.inst         0.998994                       # miss rate for demand accesses
system.l2.demand_miss_rate::cpu.data         0.102065                       # miss rate for demand accesses
system.l2.demand_miss_rate::total            0.102184                       # miss rate for demand accesses
system.l2.overall_miss_rate::cpu.inst        0.998994                       # miss rate for overall accesses
system.l2.overall_miss_rate::cpu.data        0.102065                       # miss rate for overall accesses
system.l2.overall_miss_rate::total           0.102184                       # miss rate for overall accesses
system.l2.ReadExReq_avg_miss_latency::cpu.data 85005.122443                       # average ReadExReq miss latency
system.l2.ReadExReq_avg_miss_latency::total 85005.122443                       # average ReadExReq miss latency
system.l2.ReadCleanReq_avg_miss_latency::cpu.inst 75226.586103                       # average ReadCleanReq miss latency
system.l2.ReadCleanReq_avg_miss_latency::total 75226.586103                       # average ReadCleanReq miss latency
system.l2.ReadSharedReq_avg_miss_latency::cpu.data 81856.748157                       # average ReadSharedReq miss latency
system.l2.ReadSharedReq_avg_miss_latency::total 81856.748157                       # average ReadSharedReq miss latency
system.l2.demand_avg_miss_latency::cpu.inst 75226.586103                       # average overall miss latency
system.l2.demand_avg_miss_latency::cpu.data 83175.265580                       # average overall miss latency
system.l2.demand_avg_miss_latency::total 83164.919630                       # average overall miss latency
system.l2.overall_avg_miss_latency::cpu.inst 75226.586103                       # average overall miss latency
system.l2.overall_avg_miss_latency::cpu.data 83175.265580                       # average overall miss latency
system.l2.overall_avg_miss_latency::total 83164.919630                       # average overall miss latency
system.l2.blocked_cycles::no_mshrs                  0                       # number of cycles access was blocked
system.l2.blocked_cycles::no_targets                0                       # number of cycles access was blocked
system.l2.blocked::no_mshrs                         0                       # number of cycles access was blocked
system.l2.blocked::no_targets                       0                       # number of cycles access was blocked
system.l2.avg_blocked_cycles::no_mshrs            nan                       # average number of cycles each access was blocked
system.l2.avg_blocked_cycles::no_targets          nan                       # average number of cycles each access was blocked
system.l2.fast_writes                               0                       # number of fast writes performed
system.l2.cache_copies                              0                       # number of cache copies performed
system.l2.writebacks::writebacks               406744                       # number of writebacks
system.l2.writebacks::total                    406744                       # number of writebacks
system.l2.CleanEvict_mshr_misses::writebacks         2075                       # number of CleanEvict MSHR misses
system.l2.CleanEvict_mshr_misses::total          2075                       # number of CleanEvict MSHR misses
system.l2.ReadExReq_mshr_misses::cpu.data       319086                       # number of ReadExReq MSHR misses
system.l2.ReadExReq_mshr_misses::total         319086                       # number of ReadExReq MSHR misses
system.l2.ReadCleanReq_mshr_misses::cpu.inst          993                       # number of ReadCleanReq MSHR misses
system.l2.ReadCleanReq_mshr_misses::total          993                       # number of ReadCleanReq MSHR misses
system.l2.ReadSharedReq_mshr_misses::cpu.data       442832                       # number of ReadSharedReq MSHR misses
system.l2.ReadSharedReq_mshr_misses::total       442832                       # number of ReadSharedReq MSHR misses
system.l2.demand_mshr_misses::cpu.inst            993                       # number of demand (read+write) MSHR misses
system.l2.demand_mshr_misses::cpu.data         761918                       # number of demand (read+write) MSHR misses
system.l2.demand_mshr_misses::total            762911                       # number of demand (read+write) MSHR misses
system.l2.overall_mshr_misses::cpu.inst           993                       # number of overall MSHR misses
system.l2.overall_mshr_misses::cpu.data        761918                       # number of overall MSHR misses
system.l2.overall_mshr_misses::total           762911                       # number of overall MSHR misses
system.l2.ReadExReq_mshr_miss_latency::cpu.data  23933084500                       # number of ReadExReq MSHR miss cycles
system.l2.ReadExReq_mshr_miss_latency::total  23933084500                       # number of ReadExReq MSHR miss cycles
system.l2.ReadCleanReq_mshr_miss_latency::cpu.inst     64770000                       # number of ReadCleanReq MSHR miss cycles
system.l2.ReadCleanReq_mshr_miss_latency::total     64770000                       # number of ReadCleanReq MSHR miss cycles
system.l2.ReadSharedReq_mshr_miss_latency::cpu.data  31820467500                       # number of ReadSharedReq MSHR miss cycles
system.l2.ReadSharedReq_mshr_miss_latency::total  31820467500                       # number of ReadSharedReq MSHR miss cycles
system.l2.demand_mshr_miss_latency::cpu.inst     64770000                       # number of demand (read+write) MSHR miss cycles
system.l2.demand_mshr_miss_latency::cpu.data  55753552000                       # number of demand (read+write) MSHR miss cycles
system.l2.demand_mshr_miss_latency::total  55818322000                       # number of demand (read+write) MSHR miss cycles
system.l2.overall_mshr_miss_latency::cpu.inst     64770000                       # number of overall MSHR miss cycles
system.l2.overall_mshr_miss_latency::cpu.data  55753552000                       # number of overall MSHR miss cycles
system.l2.overall_mshr_miss_latency::total  55818322000                       # number of overall MSHR miss cycles
system.l2.CleanEvict_mshr_miss_rate::writebacks          inf                       # mshr miss rate for CleanEvict accesses
system.l2.CleanEvict_mshr_miss_rate::total          inf                       # mshr miss rate for CleanEvict accesses
system.l2.ReadExReq_mshr_miss_rate::cpu.data     0.244286                       # mshr miss rate for ReadExReq accesses
system.l2.ReadExReq_mshr_miss_rate::total     0.244286                       # mshr miss rate for ReadExReq accesses
system.l2.ReadCleanReq_mshr_miss_rate::cpu.inst     0.998994                       # mshr miss rate for ReadCleanReq accesses
system.l2.ReadCleanReq_mshr_miss_rate::total     0.998994                       # mshr miss rate for ReadCleanReq accesses
system.l2.ReadSharedReq_mshr_miss_rate::cpu.data     0.071902                       # mshr miss rate for ReadSharedReq accesses
system.l2.ReadSharedReq_mshr_miss_rate::total     0.071902                       # mshr miss rate for ReadSharedReq accesses
system.l2.demand_mshr_miss_rate::cpu.inst     0.998994                       # mshr miss rate for demand accesses
system.l2.demand_mshr_miss_rate::cpu.data     0.102065                       # mshr miss rate for demand accesses
system.l2.demand_mshr_miss_rate::total       0.102184                       # mshr miss rate for demand accesses
system.l2.overall_mshr_miss_rate::cpu.inst     0.998994                       # mshr miss rate for overall accesses
system.l2.overall_mshr_miss_rate::cpu.data     0.102065                       # mshr miss rate for overall accesses
system.l2.overall_mshr_miss_rate::total      0.102184                       # mshr miss rate for overall accesses
system.l2.ReadExReq_avg_mshr_miss_latency::cpu.data 75005.122443                       # average ReadExReq mshr miss latency
system.l2.ReadExReq_avg_mshr_miss_latency::total 75005.122443                       # average ReadExReq mshr miss latency
system.l2.ReadCleanReq_avg_mshr_miss_latency::cpu.inst 65226.586103                       # average ReadCleanReq mshr miss latency
system.l2.ReadCleanReq_avg_mshr_miss_latency::total 65226.586103                       # average ReadCleanReq mshr miss latency
system.l2.ReadSharedReq_avg_mshr_miss_latency::cpu.data 71856.748157                       # average ReadSharedReq mshr miss latency
system.l2.ReadSharedReq_avg_mshr_miss_latency::total 71856.748157                       # average ReadSharedReq mshr miss latency
system.l2.demand_avg_mshr_miss_latency::cpu.inst 65226.586103                       # average overall mshr miss latency
system.l2.demand_avg_mshr_miss_latency::cpu.data 73175.265580                       # average overall mshr miss latency
system.l2.demand_avg_mshr_miss_latency::total 73164.919630                       # average overall mshr miss latency
system.l2.overall_avg_mshr_miss_latency::cpu.inst 65226.586103                       # average overall mshr miss latency
system.l2.overall_avg_mshr_miss_latency::cpu.data 73175.265580                       # average overall mshr miss latency
system.l2.overall_avg_mshr_miss_latency::total 73164.919630                       # average overall mshr miss latency
system.l2.no_allocate_misses                        0                       # Number of misses that were no-allocate
system.membus.trans_dist::ReadResp             443825                       # Transaction distribution
system.membus.trans_dist::WritebackDirty       406744                       # Transaction distribution
system.membus.trans_dist::CleanEvict           338875                       # Transaction distribution
system.membus.trans_dist::ReadExReq            319086                       # Transaction distribution
system.membus.trans_dist::ReadExResp           319086                       # Transaction distribution
system.membus.trans_dist::ReadSharedReq        443825                       # Transaction distribution
system.membus.pkt_count_system.l2.mem_side::system.mem_ctrls.port      2271441                       # Packet count per connected master and slave (bytes)
system.membus.pkt_count_system.l2.mem_side::total      2271441                       # Packet count per connected master and slave (bytes)
system.membus.pkt_count::total                2271441                       # Packet count per connected master and slave (bytes)
system.membus.pkt_size_system.l2.mem_side::system.mem_ctrls.port     74857920                       # Cumulative packet size per connected master and slave (bytes)
system.membus.pkt_size_system.l2.mem_side::total     74857920                       # Cumulative packet size per connected master and slave (bytes)
system.membus.pkt_size::total                74857920                       # Cumulative packet size per connected master and slave (bytes)
system.membus.snoops                                0                       # Total snoops (count)
system.membus.snoop_fanout::samples           1508530                       # Request fanout histogram
system.membus.snoop_fanout::mean                    0                       # Request fanout histogram
system.membus.snoop_fanout::stdev                   0                       # Request fanout histogram
system.membus.snoop_fanout::underflows              0      0.00%      0.00% # Request fanout histogram
system.membus.snoop_fanout::0                 1508530    100.00%    100.00% # Request fanout histogram
system.membus.snoop_fanout::1                       0      0.00%    100.00% # Request fanout histogram
system.membus.snoop_fanout::overflows               0      0.00%    100.00% # Request fanout histogram
system.membus.snoop_fanout::min_value               0                       # Request fanout histogram
system.membus.snoop_fanout::max_value               0                       # Request fanout histogram
system.membus.snoop_fanout::total             1508530                       # Request fanout histogram
system.membus.reqLayer2.occupancy          3143967000                       # Layer occupancy (ticks)
system.membus.reqLayer2.utilization               0.3                       # Layer utilization (%)
system.membus.respLayer1.occupancy         4127240000                       # Layer occupancy (ticks)
system.membus.respLayer1.utilization              0.4                       # Layer utilization (%)
system.tol2bus.snoop_filter.tot_requests     14931061                       # Total number of requests made to the snoop filter.
system.tol2bus.snoop_filter.hit_single_requests      7465040                       # Number of requests hitting in the snoop filter with a single holder of the requested data.
system.tol2bus.snoop_filter.hit_multi_requests            0                       # Number of requests hitting in the snoop filter with multiple (>1) holders of the requested data.
system.tol2bus.snoop_filter.tot_snoops           4711                       # Total number of snoops made to the snoop filter.
system.tol2bus.snoop_filter.hit_single_snoops         4711                       # Number of snoops hitting in the snoop filter with a single holder of the requested data.
system.tol2bus.snoop_filter.hit_multi_snoops            0                       # Number of snoops hitting in the snoop filter with multiple (>1) holders of the requested data.
system.tol2bus.trans_dist::ReadResp           6159823                       # Transaction distribution
system.tol2bus.trans_dist::WritebackDirty      4471364                       # Transaction distribution
system.tol2bus.trans_dist::WritebackClean           45                       # Transaction distribution
system.tol2bus.trans_dist::CleanEvict         3741886                       # Transaction distribution
system.tol2bus.trans_dist::ReadExReq          1306198                       # Transaction distribution
system.tol2bus.trans_dist::ReadExResp         1306198                       # Transaction distribution
system.tol2bus.trans_dist::ReadCleanReq           994                       # Transaction distribution
system.tol2bus.trans_dist::ReadSharedReq      6158829                       # Transaction distribution
system.tol2bus.pkt_count_system.cpu.icache.mem_side::system.l2.cpu_side         2033                       # Packet count per connected master and slave (bytes)
system.tol2bus.pkt_count_system.cpu.dcache.mem_side::system.l2.cpu_side     22395049                       # Packet count per connected master and slave (bytes)
system.tol2bus.pkt_count::total              22397082                       # Packet count per connected master and slave (bytes)
system.tol2bus.pkt_size_system.cpu.icache.mem_side::system.l2.cpu_side        66496                       # Cumulative packet size per connected master and slave (bytes)
system.tol2bus.pkt_size_system.cpu.dcache.mem_side::system.l2.cpu_side    737897408                       # Cumulative packet size per connected master and slave (bytes)
system.tol2bus.pkt_size::total              737963904                       # Cumulative packet size per connected master and slave (bytes)
system.tol2bus.snoops                          748255                       # Total snoops (count)
system.tol2bus.snoop_fanout::samples          8214276                       # Request fanout histogram
system.tol2bus.snoop_fanout::mean            0.000574                       # Request fanout histogram
system.tol2bus.snoop_fanout::stdev           0.023941                       # Request fanout histogram
system.tol2bus.snoop_fanout::underflows             0      0.00%      0.00% # Request fanout histogram
system.tol2bus.snoop_fanout::0                8209565     99.94%     99.94% # Request fanout histogram
system.tol2bus.snoop_fanout::1                   4711      0.06%    100.00% # Request fanout histogram
system.tol2bus.snoop_fanout::2                      0      0.00%    100.00% # Request fanout histogram
system.tol2bus.snoop_fanout::3                      0      0.00%    100.00% # Request fanout histogram
system.tol2bus.snoop_fanout::4                      0      0.00%    100.00% # Request fanout histogram
system.tol2bus.snoop_fanout::overflows              0      0.00%    100.00% # Request fanout histogram
system.tol2bus.snoop_fanout::min_value              0                       # Request fanout histogram
system.tol2bus.snoop_fanout::max_value              1                       # Request fanout histogram
system.tol2bus.snoop_fanout::total            8214276                       # Request fanout histogram
system.tol2bus.reqLayer0.occupancy        11530195500                       # Layer occupancy (ticks)
system.tol2bus.reqLayer0.utilization              1.0                       # Layer utilization (%)
system.tol2bus.respLayer0.occupancy           1491000                       # Layer occupancy (ticks)
system.tol2bus.respLayer0.utilization             0.0                       # Layer utilization (%)
system.tol2bus.respLayer1.occupancy       11197540500                       # Layer occupancy (ticks)
system.tol2bus.respLayer1.utilization             1.0                       # Layer utilization (%)

---------- End Simulation Statistics   ----------
