
---------- Begin Simulation Statistics ----------
sim_seconds                                  1.866463                       # Number of seconds simulated
sim_ticks                                1866463472500                       # Number of ticks simulated
final_tick                               1866463472500                       # Number of ticks from beginning of simulation (restored from checkpoints and never reset)
sim_freq                                 1000000000000                       # Frequency of simulated ticks
host_inst_rate                                  33953                       # Simulator instruction rate (inst/s)
host_op_rate                                    59506                       # Simulator op (including micro ops) rate (op/s)
host_tick_rate                              126742956                       # Simulator tick rate (ticks/s)
host_mem_usage                                 833828                       # Number of bytes of host memory used
host_seconds                                 14726.37                       # Real time elapsed on the host
sim_insts                                   500000000                       # Number of instructions simulated
sim_ops                                     876313787                       # Number of ops (including micro ops) simulated
system.voltage_domain.voltage                       1                       # Voltage in Volts
system.clk_domain.clock                          1000                       # Clock period in ticks
system.mem_ctrls.bytes_read::cpu.inst           32080                       # Number of bytes read from this memory
system.mem_ctrls.bytes_read::cpu.data       160313280                       # Number of bytes read from this memory
system.mem_ctrls.bytes_read::total          160345360                       # Number of bytes read from this memory
system.mem_ctrls.bytes_inst_read::cpu.inst        32080                       # Number of instructions bytes read from this memory
system.mem_ctrls.bytes_inst_read::total         32080                       # Number of instructions bytes read from this memory
system.mem_ctrls.bytes_written::writebacks     19000688                       # Number of bytes written to this memory
system.mem_ctrls.bytes_written::total        19000688                       # Number of bytes written to this memory
system.mem_ctrls.num_reads::cpu.inst             2005                       # Number of read requests responded to by this memory
system.mem_ctrls.num_reads::cpu.data         10019580                       # Number of read requests responded to by this memory
system.mem_ctrls.num_reads::total            10021585                       # Number of read requests responded to by this memory
system.mem_ctrls.num_writes::writebacks       1187543                       # Number of write requests responded to by this memory
system.mem_ctrls.num_writes::total            1187543                       # Number of write requests responded to by this memory
system.mem_ctrls.bw_read::cpu.inst              17188                       # Total read bandwidth from this memory (bytes/s)
system.mem_ctrls.bw_read::cpu.data           85891464                       # Total read bandwidth from this memory (bytes/s)
system.mem_ctrls.bw_read::total              85908652                       # Total read bandwidth from this memory (bytes/s)
system.mem_ctrls.bw_inst_read::cpu.inst         17188                       # Instruction read bandwidth from this memory (bytes/s)
system.mem_ctrls.bw_inst_read::total            17188                       # Instruction read bandwidth from this memory (bytes/s)
system.mem_ctrls.bw_write::writebacks        10180048                       # Write bandwidth from this memory (bytes/s)
system.mem_ctrls.bw_write::total             10180048                       # Write bandwidth from this memory (bytes/s)
system.mem_ctrls.bw_total::writebacks        10180048                       # Total bandwidth to/from this memory (bytes/s)
system.mem_ctrls.bw_total::cpu.inst             17188                       # Total bandwidth to/from this memory (bytes/s)
system.mem_ctrls.bw_total::cpu.data          85891464                       # Total bandwidth to/from this memory (bytes/s)
system.mem_ctrls.bw_total::total             96088700                       # Total bandwidth to/from this memory (bytes/s)
system.mem_ctrls.readReqs                    10021585                       # Number of read requests accepted
system.mem_ctrls.writeReqs                    1187543                       # Number of write requests accepted
system.mem_ctrls.readBursts                  10021585                       # Number of DRAM read bursts, including those serviced by the write queue
system.mem_ctrls.writeBursts                  1187543                       # Number of DRAM write bursts, including those merged in the write queue
system.mem_ctrls.bytesReadDRAM              640909120                       # Total number of bytes read from DRAM
system.mem_ctrls.bytesReadWrQ                  472320                       # Total number of bytes read from write queue
system.mem_ctrls.bytesWritten                55741632                       # Total number of bytes written to DRAM
system.mem_ctrls.bytesReadSys               160345360                       # Total read bytes from the system interface side
system.mem_ctrls.bytesWrittenSys             19000688                       # Total written bytes from the system interface side
system.mem_ctrls.servicedByWrQ                   7380                       # Number of DRAM read bursts serviced by the write queue
system.mem_ctrls.mergedWrBursts                316562                       # Number of DRAM write bursts merged with an existing one
system.mem_ctrls.neitherReadNorWriteReqs      8766346                       # Number of requests that are neither read nor write
system.mem_ctrls.perBankRdBursts::0            640565                       # Per bank write bursts
system.mem_ctrls.perBankRdBursts::1            623987                       # Per bank write bursts
system.mem_ctrls.perBankRdBursts::2            623690                       # Per bank write bursts
system.mem_ctrls.perBankRdBursts::3            647570                       # Per bank write bursts
system.mem_ctrls.perBankRdBursts::4            613450                       # Per bank write bursts
system.mem_ctrls.perBankRdBursts::5            613884                       # Per bank write bursts
system.mem_ctrls.perBankRdBursts::6            625076                       # Per bank write bursts
system.mem_ctrls.perBankRdBursts::7            609551                       # Per bank write bursts
system.mem_ctrls.perBankRdBursts::8            616652                       # Per bank write bursts
system.mem_ctrls.perBankRdBursts::9            613708                       # Per bank write bursts
system.mem_ctrls.perBankRdBursts::10           616982                       # Per bank write bursts
system.mem_ctrls.perBankRdBursts::11           627736                       # Per bank write bursts
system.mem_ctrls.perBankRdBursts::12           633858                       # Per bank write bursts
system.mem_ctrls.perBankRdBursts::13           638078                       # Per bank write bursts
system.mem_ctrls.perBankRdBursts::14           634198                       # Per bank write bursts
system.mem_ctrls.perBankRdBursts::15           635220                       # Per bank write bursts
system.mem_ctrls.perBankWrBursts::0             56381                       # Per bank write bursts
system.mem_ctrls.perBankWrBursts::1             56128                       # Per bank write bursts
system.mem_ctrls.perBankWrBursts::2             56252                       # Per bank write bursts
system.mem_ctrls.perBankWrBursts::3             63619                       # Per bank write bursts
system.mem_ctrls.perBankWrBursts::4             53660                       # Per bank write bursts
system.mem_ctrls.perBankWrBursts::5             50711                       # Per bank write bursts
system.mem_ctrls.perBankWrBursts::6             53794                       # Per bank write bursts
system.mem_ctrls.perBankWrBursts::7             50197                       # Per bank write bursts
system.mem_ctrls.perBankWrBursts::8             50800                       # Per bank write bursts
system.mem_ctrls.perBankWrBursts::9             50201                       # Per bank write bursts
system.mem_ctrls.perBankWrBursts::10            50605                       # Per bank write bursts
system.mem_ctrls.perBankWrBursts::11            54211                       # Per bank write bursts
system.mem_ctrls.perBankWrBursts::12            56182                       # Per bank write bursts
system.mem_ctrls.perBankWrBursts::13            56292                       # Per bank write bursts
system.mem_ctrls.perBankWrBursts::14            55953                       # Per bank write bursts
system.mem_ctrls.perBankWrBursts::15            55977                       # Per bank write bursts
system.mem_ctrls.numRdRetry                         0                       # Number of times read queue was full causing retry
system.mem_ctrls.numWrRetry                         0                       # Number of times write queue was full causing retry
system.mem_ctrls.totGap                  1866446916500                       # Total gap between requests
system.mem_ctrls.readPktSize::0                     0                       # Read request sizes (log2)
system.mem_ctrls.readPktSize::1                     0                       # Read request sizes (log2)
system.mem_ctrls.readPktSize::2                     0                       # Read request sizes (log2)
system.mem_ctrls.readPktSize::3                     0                       # Read request sizes (log2)
system.mem_ctrls.readPktSize::4              10021585                       # Read request sizes (log2)
system.mem_ctrls.readPktSize::5                     0                       # Read request sizes (log2)
system.mem_ctrls.readPktSize::6                     0                       # Read request sizes (log2)
system.mem_ctrls.writePktSize::0                    0                       # Write request sizes (log2)
system.mem_ctrls.writePktSize::1                    0                       # Write request sizes (log2)
system.mem_ctrls.writePktSize::2                    0                       # Write request sizes (log2)
system.mem_ctrls.writePktSize::3                    0                       # Write request sizes (log2)
system.mem_ctrls.writePktSize::4              1187543                       # Write request sizes (log2)
system.mem_ctrls.writePktSize::5                    0                       # Write request sizes (log2)
system.mem_ctrls.writePktSize::6                    0                       # Write request sizes (log2)
system.mem_ctrls.rdQLenPdf::0                10014204                       # What read queue length does an incoming req see
system.mem_ctrls.rdQLenPdf::1                       1                       # What read queue length does an incoming req see
system.mem_ctrls.rdQLenPdf::2                       0                       # What read queue length does an incoming req see
system.mem_ctrls.rdQLenPdf::3                       0                       # What read queue length does an incoming req see
system.mem_ctrls.rdQLenPdf::4                       0                       # What read queue length does an incoming req see
system.mem_ctrls.rdQLenPdf::5                       0                       # What read queue length does an incoming req see
system.mem_ctrls.rdQLenPdf::6                       0                       # What read queue length does an incoming req see
system.mem_ctrls.rdQLenPdf::7                       0                       # What read queue length does an incoming req see
system.mem_ctrls.rdQLenPdf::8                       0                       # What read queue length does an incoming req see
system.mem_ctrls.rdQLenPdf::9                       0                       # What read queue length does an incoming req see
system.mem_ctrls.rdQLenPdf::10                      0                       # What read queue length does an incoming req see
system.mem_ctrls.rdQLenPdf::11                      0                       # What read queue length does an incoming req see
system.mem_ctrls.rdQLenPdf::12                      0                       # What read queue length does an incoming req see
system.mem_ctrls.rdQLenPdf::13                      0                       # What read queue length does an incoming req see
system.mem_ctrls.rdQLenPdf::14                      0                       # What read queue length does an incoming req see
system.mem_ctrls.rdQLenPdf::15                      0                       # What read queue length does an incoming req see
system.mem_ctrls.rdQLenPdf::16                      0                       # What read queue length does an incoming req see
system.mem_ctrls.rdQLenPdf::17                      0                       # What read queue length does an incoming req see
system.mem_ctrls.rdQLenPdf::18                      0                       # What read queue length does an incoming req see
system.mem_ctrls.rdQLenPdf::19                      0                       # What read queue length does an incoming req see
system.mem_ctrls.rdQLenPdf::20                      0                       # What read queue length does an incoming req see
system.mem_ctrls.rdQLenPdf::21                      0                       # What read queue length does an incoming req see
system.mem_ctrls.rdQLenPdf::22                      0                       # What read queue length does an incoming req see
system.mem_ctrls.rdQLenPdf::23                      0                       # What read queue length does an incoming req see
system.mem_ctrls.rdQLenPdf::24                      0                       # What read queue length does an incoming req see
system.mem_ctrls.rdQLenPdf::25                      0                       # What read queue length does an incoming req see
system.mem_ctrls.rdQLenPdf::26                      0                       # What read queue length does an incoming req see
system.mem_ctrls.rdQLenPdf::27                      0                       # What read queue length does an incoming req see
system.mem_ctrls.rdQLenPdf::28                      0                       # What read queue length does an incoming req see
system.mem_ctrls.rdQLenPdf::29                      0                       # What read queue length does an incoming req see
system.mem_ctrls.rdQLenPdf::30                      0                       # What read queue length does an incoming req see
system.mem_ctrls.rdQLenPdf::31                      0                       # What read queue length does an incoming req see
system.mem_ctrls.wrQLenPdf::0                       1                       # What write queue length does an incoming req see
system.mem_ctrls.wrQLenPdf::1                       1                       # What write queue length does an incoming req see
system.mem_ctrls.wrQLenPdf::2                       1                       # What write queue length does an incoming req see
system.mem_ctrls.wrQLenPdf::3                       1                       # What write queue length does an incoming req see
system.mem_ctrls.wrQLenPdf::4                       1                       # What write queue length does an incoming req see
system.mem_ctrls.wrQLenPdf::5                       1                       # What write queue length does an incoming req see
system.mem_ctrls.wrQLenPdf::6                       1                       # What write queue length does an incoming req see
system.mem_ctrls.wrQLenPdf::7                       1                       # What write queue length does an incoming req see
system.mem_ctrls.wrQLenPdf::8                       1                       # What write queue length does an incoming req see
system.mem_ctrls.wrQLenPdf::9                       1                       # What write queue length does an incoming req see
system.mem_ctrls.wrQLenPdf::10                      1                       # What write queue length does an incoming req see
system.mem_ctrls.wrQLenPdf::11                      1                       # What write queue length does an incoming req see
system.mem_ctrls.wrQLenPdf::12                      1                       # What write queue length does an incoming req see
system.mem_ctrls.wrQLenPdf::13                      1                       # What write queue length does an incoming req see
system.mem_ctrls.wrQLenPdf::14                      1                       # What write queue length does an incoming req see
system.mem_ctrls.wrQLenPdf::15                   7967                       # What write queue length does an incoming req see
system.mem_ctrls.wrQLenPdf::16                   9005                       # What write queue length does an incoming req see
system.mem_ctrls.wrQLenPdf::17                  53025                       # What write queue length does an incoming req see
system.mem_ctrls.wrQLenPdf::18                  53373                       # What write queue length does an incoming req see
system.mem_ctrls.wrQLenPdf::19                  53374                       # What write queue length does an incoming req see
system.mem_ctrls.wrQLenPdf::20                  53373                       # What write queue length does an incoming req see
system.mem_ctrls.wrQLenPdf::21                  53377                       # What write queue length does an incoming req see
system.mem_ctrls.wrQLenPdf::22                  53377                       # What write queue length does an incoming req see
system.mem_ctrls.wrQLenPdf::23                  53374                       # What write queue length does an incoming req see
system.mem_ctrls.wrQLenPdf::24                  53383                       # What write queue length does an incoming req see
system.mem_ctrls.wrQLenPdf::25                  53427                       # What write queue length does an incoming req see
system.mem_ctrls.wrQLenPdf::26                  53399                       # What write queue length does an incoming req see
system.mem_ctrls.wrQLenPdf::27                  53470                       # What write queue length does an incoming req see
system.mem_ctrls.wrQLenPdf::28                  53440                       # What write queue length does an incoming req see
system.mem_ctrls.wrQLenPdf::29                  53411                       # What write queue length does an incoming req see
system.mem_ctrls.wrQLenPdf::30                  53438                       # What write queue length does an incoming req see
system.mem_ctrls.wrQLenPdf::31                  53379                       # What write queue length does an incoming req see
system.mem_ctrls.wrQLenPdf::32                  53370                       # What write queue length does an incoming req see
system.mem_ctrls.wrQLenPdf::33                      4                       # What write queue length does an incoming req see
system.mem_ctrls.wrQLenPdf::34                      0                       # What write queue length does an incoming req see
system.mem_ctrls.wrQLenPdf::35                      0                       # What write queue length does an incoming req see
system.mem_ctrls.wrQLenPdf::36                      0                       # What write queue length does an incoming req see
system.mem_ctrls.wrQLenPdf::37                      0                       # What write queue length does an incoming req see
system.mem_ctrls.wrQLenPdf::38                      0                       # What write queue length does an incoming req see
system.mem_ctrls.wrQLenPdf::39                      0                       # What write queue length does an incoming req see
system.mem_ctrls.wrQLenPdf::40                      0                       # What write queue length does an incoming req see
system.mem_ctrls.wrQLenPdf::41                      0                       # What write queue length does an incoming req see
system.mem_ctrls.wrQLenPdf::42                      0                       # What write queue length does an incoming req see
system.mem_ctrls.wrQLenPdf::43                      0                       # What write queue length does an incoming req see
system.mem_ctrls.wrQLenPdf::44                      0                       # What write queue length does an incoming req see
system.mem_ctrls.wrQLenPdf::45                      0                       # What write queue length does an incoming req see
system.mem_ctrls.wrQLenPdf::46                      0                       # What write queue length does an incoming req see
system.mem_ctrls.wrQLenPdf::47                      0                       # What write queue length does an incoming req see
system.mem_ctrls.wrQLenPdf::48                      0                       # What write queue length does an incoming req see
system.mem_ctrls.wrQLenPdf::49                      0                       # What write queue length does an incoming req see
system.mem_ctrls.wrQLenPdf::50                      0                       # What write queue length does an incoming req see
system.mem_ctrls.wrQLenPdf::51                      0                       # What write queue length does an incoming req see
system.mem_ctrls.wrQLenPdf::52                      0                       # What write queue length does an incoming req see
system.mem_ctrls.wrQLenPdf::53                      0                       # What write queue length does an incoming req see
system.mem_ctrls.wrQLenPdf::54                      0                       # What write queue length does an incoming req see
system.mem_ctrls.wrQLenPdf::55                      0                       # What write queue length does an incoming req see
system.mem_ctrls.wrQLenPdf::56                      0                       # What write queue length does an incoming req see
system.mem_ctrls.wrQLenPdf::57                      0                       # What write queue length does an incoming req see
system.mem_ctrls.wrQLenPdf::58                      0                       # What write queue length does an incoming req see
system.mem_ctrls.wrQLenPdf::59                      0                       # What write queue length does an incoming req see
system.mem_ctrls.wrQLenPdf::60                      0                       # What write queue length does an incoming req see
system.mem_ctrls.wrQLenPdf::61                      0                       # What write queue length does an incoming req see
system.mem_ctrls.wrQLenPdf::62                      0                       # What write queue length does an incoming req see
system.mem_ctrls.wrQLenPdf::63                      0                       # What write queue length does an incoming req see
system.mem_ctrls.bytesPerActivate::samples      5223476                       # Bytes accessed per row activation
system.mem_ctrls.bytesPerActivate::mean    133.369188                       # Bytes accessed per row activation
system.mem_ctrls.bytesPerActivate::gmean   112.555451                       # Bytes accessed per row activation
system.mem_ctrls.bytesPerActivate::stdev   130.040164                       # Bytes accessed per row activation
system.mem_ctrls.bytesPerActivate::0-127      1521267     29.12%     29.12% # Bytes accessed per row activation
system.mem_ctrls.bytesPerActivate::128-255      3461664     66.27%     95.39% # Bytes accessed per row activation
system.mem_ctrls.bytesPerActivate::256-383        58705      1.12%     96.52% # Bytes accessed per row activation
system.mem_ctrls.bytesPerActivate::384-511        29053      0.56%     97.07% # Bytes accessed per row activation
system.mem_ctrls.bytesPerActivate::512-639        51384      0.98%     98.06% # Bytes accessed per row activation
system.mem_ctrls.bytesPerActivate::640-767        10868      0.21%     98.27% # Bytes accessed per row activation
system.mem_ctrls.bytesPerActivate::768-895        11057      0.21%     98.48% # Bytes accessed per row activation
system.mem_ctrls.bytesPerActivate::896-1023        11750      0.22%     98.70% # Bytes accessed per row activation
system.mem_ctrls.bytesPerActivate::1024-1151        67728      1.30%    100.00% # Bytes accessed per row activation
system.mem_ctrls.bytesPerActivate::total      5223476                       # Bytes accessed per row activation
system.mem_ctrls.rdPerTurnAround::samples        53370                       # Reads before turning the bus around for writes
system.mem_ctrls.rdPerTurnAround::mean     187.637212                       # Reads before turning the bus around for writes
system.mem_ctrls.rdPerTurnAround::gmean     91.577304                       # Reads before turning the bus around for writes
system.mem_ctrls.rdPerTurnAround::stdev    265.255470                       # Reads before turning the bus around for writes
system.mem_ctrls.rdPerTurnAround::0-511         46363     86.87%     86.87% # Reads before turning the bus around for writes
system.mem_ctrls.rdPerTurnAround::512-1023         6450     12.09%     98.96% # Reads before turning the bus around for writes
system.mem_ctrls.rdPerTurnAround::1024-1535          351      0.66%     99.61% # Reads before turning the bus around for writes
system.mem_ctrls.rdPerTurnAround::1536-2047          116      0.22%     99.83% # Reads before turning the bus around for writes
system.mem_ctrls.rdPerTurnAround::2048-2559           39      0.07%     99.90% # Reads before turning the bus around for writes
system.mem_ctrls.rdPerTurnAround::2560-3071           24      0.04%     99.95% # Reads before turning the bus around for writes
system.mem_ctrls.rdPerTurnAround::3072-3583           14      0.03%     99.98% # Reads before turning the bus around for writes
system.mem_ctrls.rdPerTurnAround::3584-4095            4      0.01%     99.98% # Reads before turning the bus around for writes
system.mem_ctrls.rdPerTurnAround::4096-4607            2      0.00%     99.99% # Reads before turning the bus around for writes
system.mem_ctrls.rdPerTurnAround::4608-5119            1      0.00%     99.99% # Reads before turning the bus around for writes
system.mem_ctrls.rdPerTurnAround::5120-5631            2      0.00%     99.99% # Reads before turning the bus around for writes
system.mem_ctrls.rdPerTurnAround::6144-6655            1      0.00%     99.99% # Reads before turning the bus around for writes
system.mem_ctrls.rdPerTurnAround::7680-8191            1      0.00%    100.00% # Reads before turning the bus around for writes
system.mem_ctrls.rdPerTurnAround::8192-8703            1      0.00%    100.00% # Reads before turning the bus around for writes
system.mem_ctrls.rdPerTurnAround::10752-11263            1      0.00%    100.00% # Reads before turning the bus around for writes
system.mem_ctrls.rdPerTurnAround::total         53370                       # Reads before turning the bus around for writes
system.mem_ctrls.wrPerTurnAround::samples        53370                       # Writes before turning the bus around for reads
system.mem_ctrls.wrPerTurnAround::mean      16.319337                       # Writes before turning the bus around for reads
system.mem_ctrls.wrPerTurnAround::gmean     16.304198                       # Writes before turning the bus around for reads
system.mem_ctrls.wrPerTurnAround::stdev      0.721794                       # Writes before turning the bus around for reads
system.mem_ctrls.wrPerTurnAround::16            44366     83.13%     83.13% # Writes before turning the bus around for reads
system.mem_ctrls.wrPerTurnAround::17             1027      1.92%     85.05% # Writes before turning the bus around for reads
system.mem_ctrls.wrPerTurnAround::18             7916     14.83%     99.89% # Writes before turning the bus around for reads
system.mem_ctrls.wrPerTurnAround::19               60      0.11%    100.00% # Writes before turning the bus around for reads
system.mem_ctrls.wrPerTurnAround::20                1      0.00%    100.00% # Writes before turning the bus around for reads
system.mem_ctrls.wrPerTurnAround::total         53370                       # Writes before turning the bus around for reads
system.mem_ctrls.totQLat                 151156374500                       # Total ticks spent queuing
system.mem_ctrls.totMemAccLat            338922718250                       # Total ticks spent from burst creation until serviced by the DRAM
system.mem_ctrls.totBusLat                50071025000                       # Total ticks spent in databus transfers
system.mem_ctrls.avgQLat                     15094.20                       # Average queueing delay per DRAM burst
system.mem_ctrls.avgBusLat                    5000.00                       # Average bus latency per DRAM burst
system.mem_ctrls.avgMemAccLat                33844.20                       # Average memory access latency per DRAM burst
system.mem_ctrls.avgRdBW                       343.38                       # Average DRAM read bandwidth in MiByte/s
system.mem_ctrls.avgWrBW                        29.86                       # Average achieved write bandwidth in MiByte/s
system.mem_ctrls.avgRdBWSys                     85.91                       # Average system read bandwidth in MiByte/s
system.mem_ctrls.avgWrBWSys                     10.18                       # Average system write bandwidth in MiByte/s
system.mem_ctrls.peakBW                      12800.00                       # Theoretical peak bandwidth in MiByte/s
system.mem_ctrls.busUtil                         2.92                       # Data bus utilization in percentage
system.mem_ctrls.busUtilRead                     2.68                       # Data bus utilization in percentage for reads
system.mem_ctrls.busUtilWrite                    0.23                       # Data bus utilization in percentage for writes
system.mem_ctrls.avgRdQLen                       1.00                       # Average read queue length when enqueuing
system.mem_ctrls.avgWrQLen                      25.22                       # Average write queue length when enqueuing
system.mem_ctrls.readRowHits                  5226313                       # Number of row buffer hits during reads
system.mem_ctrls.writeRowHits                  435379                       # Number of row buffer hits during writes
system.mem_ctrls.readRowHitRate                 52.19                       # Row buffer hit rate for reads
system.mem_ctrls.writeRowHitRate                49.99                       # Row buffer hit rate for writes
system.mem_ctrls.avgGap                     166511.34                       # Average gap between requests
system.mem_ctrls.pageHitRate                    52.01                       # Row buffer hit rate, read and write combined
system.mem_ctrls_0.actEnergy              19662637680                       # Energy for activate commands per rank (pJ)
system.mem_ctrls_0.preEnergy              10728621750                       # Energy for precharge commands per rank (pJ)
system.mem_ctrls_0.readEnergy             38982629400                       # Energy for read commands per rank (pJ)
system.mem_ctrls_0.writeEnergy             2856008160                       # Energy for write commands per rank (pJ)
system.mem_ctrls_0.refreshEnergy         121907934720                       # Energy for refresh commands per rank (pJ)
system.mem_ctrls_0.actBackEnergy         1001229878790                       # Energy for active background per rank (pJ)
system.mem_ctrls_0.preBackEnergy         241602860250                       # Energy for precharge background per rank (pJ)
system.mem_ctrls_0.totalEnergy           1436970570750                       # Total energy per rank (pJ)
system.mem_ctrls_0.averagePower            769.891806                       # Core power per rank (mW)
system.mem_ctrls_0.memoryStateTime::IDLE 395926082000                       # Time in different power states
system.mem_ctrls_0.memoryStateTime::REF   62325120000                       # Time in different power states
system.mem_ctrls_0.memoryStateTime::PRE_PDN            0                       # Time in different power states
system.mem_ctrls_0.memoryStateTime::ACT  1408206618000                       # Time in different power states
system.mem_ctrls_0.memoryStateTime::ACT_PDN            0                       # Time in different power states
system.mem_ctrls_1.actEnergy              19826840880                       # Energy for activate commands per rank (pJ)
system.mem_ctrls_1.preEnergy              10818216750                       # Energy for precharge commands per rank (pJ)
system.mem_ctrls_1.readEnergy             39128169600                       # Energy for read commands per rank (pJ)
system.mem_ctrls_1.writeEnergy             2787832080                       # Energy for write commands per rank (pJ)
system.mem_ctrls_1.refreshEnergy         121907934720                       # Energy for refresh commands per rank (pJ)
system.mem_ctrls_1.actBackEnergy         1004224394880                       # Energy for active background per rank (pJ)
system.mem_ctrls_1.preBackEnergy         238976091750                       # Energy for precharge background per rank (pJ)
system.mem_ctrls_1.totalEnergy           1437669480660                       # Total energy per rank (pJ)
system.mem_ctrls_1.averagePower            770.266264                       # Core power per rank (mW)
system.mem_ctrls_1.memoryStateTime::IDLE 391191023500                       # Time in different power states
system.mem_ctrls_1.memoryStateTime::REF   62325120000                       # Time in different power states
system.mem_ctrls_1.memoryStateTime::PRE_PDN            0                       # Time in different power states
system.mem_ctrls_1.memoryStateTime::ACT  1412941676500                       # Time in different power states
system.mem_ctrls_1.memoryStateTime::ACT_PDN            0                       # Time in different power states
system.cpu_voltage_domain.voltage                   1                       # Voltage in Volts
system.cpu_clk_domain.clock                       500                       # Clock period in ticks
system.cpu.apic_clk_domain.clock                 8000                       # Clock period in ticks
system.cpu.workload.num_syscalls                  168                       # Number of system calls
system.cpu.numCycles                       3732926945                       # number of cpu cycles simulated
system.cpu.numWorkItemsStarted                      0                       # number of work items this cpu started
system.cpu.numWorkItemsCompleted                    0                       # number of work items this cpu completed
system.cpu.committedInsts                   500000000                       # Number of instructions committed
system.cpu.committedOps                     876313787                       # Number of ops (including micro ops) committed
system.cpu.num_int_alu_accesses             872966684                       # Number of integer alu accesses
system.cpu.num_fp_alu_accesses                2882231                       # Number of float alu accesses
system.cpu.num_func_calls                    11025254                       # number of times a function call or return occured
system.cpu.num_conditional_control_insts     75981010                       # number of instructions that are conditional controls
system.cpu.num_int_insts                    872966684                       # number of integer instructions
system.cpu.num_fp_insts                       2882231                       # number of float instructions
system.cpu.num_int_register_reads          1835046968                       # number of times the integer registers were read
system.cpu.num_int_register_writes          703076421                       # number of times the integer registers were written
system.cpu.num_fp_register_reads              4386063                       # number of times the floating registers were read
system.cpu.num_fp_register_writes             2464405                       # number of times the floating registers were written
system.cpu.num_cc_register_reads            441654672                       # number of times the CC registers were read
system.cpu.num_cc_register_writes           253505512                       # number of times the CC registers were written
system.cpu.num_mem_refs                     293763601                       # number of memory refs
system.cpu.num_load_insts                   221285044                       # Number of load instructions
system.cpu.num_store_insts                   72478557                       # Number of store instructions
system.cpu.num_idle_cycles                          0                       # Number of idle cycles
system.cpu.num_busy_cycles                 3732926945                       # Number of busy cycles
system.cpu.not_idle_fraction                        1                       # Percentage of non-idle cycles
system.cpu.idle_fraction                            0                       # Percentage of idle cycles
system.cpu.Branches                          97901002                       # Number of branches fetched
system.cpu.op_class::No_OpClass                939429      0.11%      0.11% # Class of executed instruction
system.cpu.op_class::IntAlu                 578420256     66.01%     66.11% # Class of executed instruction
system.cpu.op_class::IntMult                   907073      0.10%     66.22% # Class of executed instruction
system.cpu.op_class::IntDiv                        42      0.00%     66.22% # Class of executed instruction
system.cpu.op_class::FloatAdd                 2283386      0.26%     66.48% # Class of executed instruction
system.cpu.op_class::FloatCmp                       0      0.00%     66.48% # Class of executed instruction
system.cpu.op_class::FloatCvt                       0      0.00%     66.48% # Class of executed instruction
system.cpu.op_class::FloatMult                      0      0.00%     66.48% # Class of executed instruction
system.cpu.op_class::FloatDiv                       0      0.00%     66.48% # Class of executed instruction
system.cpu.op_class::FloatSqrt                      0      0.00%     66.48% # Class of executed instruction
system.cpu.op_class::SimdAdd                        0      0.00%     66.48% # Class of executed instruction
system.cpu.op_class::SimdAddAcc                     0      0.00%     66.48% # Class of executed instruction
system.cpu.op_class::SimdAlu                        0      0.00%     66.48% # Class of executed instruction
system.cpu.op_class::SimdCmp                        0      0.00%     66.48% # Class of executed instruction
system.cpu.op_class::SimdCvt                        0      0.00%     66.48% # Class of executed instruction
system.cpu.op_class::SimdMisc                       0      0.00%     66.48% # Class of executed instruction
system.cpu.op_class::SimdMult                       0      0.00%     66.48% # Class of executed instruction
system.cpu.op_class::SimdMultAcc                    0      0.00%     66.48% # Class of executed instruction
system.cpu.op_class::SimdShift                      0      0.00%     66.48% # Class of executed instruction
system.cpu.op_class::SimdShiftAcc                   0      0.00%     66.48% # Class of executed instruction
system.cpu.op_class::SimdSqrt                       0      0.00%     66.48% # Class of executed instruction
system.cpu.op_class::SimdFloatAdd                   0      0.00%     66.48% # Class of executed instruction
system.cpu.op_class::SimdFloatAlu                   0      0.00%     66.48% # Class of executed instruction
system.cpu.op_class::SimdFloatCmp                   0      0.00%     66.48% # Class of executed instruction
system.cpu.op_class::SimdFloatCvt                   0      0.00%     66.48% # Class of executed instruction
system.cpu.op_class::SimdFloatDiv                   0      0.00%     66.48% # Class of executed instruction
system.cpu.op_class::SimdFloatMisc                  0      0.00%     66.48% # Class of executed instruction
system.cpu.op_class::SimdFloatMult                  0      0.00%     66.48% # Class of executed instruction
system.cpu.op_class::SimdFloatMultAcc               0      0.00%     66.48% # Class of executed instruction
system.cpu.op_class::SimdFloatSqrt                  0      0.00%     66.48% # Class of executed instruction
system.cpu.op_class::MemRead                221285044     25.25%     91.73% # Class of executed instruction
system.cpu.op_class::MemWrite                72478557      8.27%    100.00% # Class of executed instruction
system.cpu.op_class::IprAccess                      0      0.00%    100.00% # Class of executed instruction
system.cpu.op_class::InstPrefetch                   0      0.00%    100.00% # Class of executed instruction
system.cpu.op_class::total                  876313787                       # Class of executed instruction
system.cpu.dcache.tags.replacements          13419812                       # number of replacements
system.cpu.dcache.tags.tagsinuse          8187.373501                       # Cycle average of tags in use
system.cpu.dcache.tags.total_refs           280458183                       # Total number of references to valid blocks.
system.cpu.dcache.tags.sampled_refs          13428004                       # Sample count of references to valid blocks.
system.cpu.dcache.tags.avg_refs             20.886066                       # Average number of references to valid blocks.
system.cpu.dcache.tags.warmup_cycle        3217982500                       # Cycle when the warmup percentage was hit.
system.cpu.dcache.tags.occ_blocks::cpu.data  8187.373501                       # Average occupied blocks per requestor
system.cpu.dcache.tags.occ_percent::cpu.data     0.999435                       # Average percentage of cache occupancy
system.cpu.dcache.tags.occ_percent::total     0.999435                       # Average percentage of cache occupancy
system.cpu.dcache.tags.occ_task_id_blocks::1024         8192                       # Occupied blocks per task id
system.cpu.dcache.tags.age_task_id_blocks_1024::0            1                       # Occupied blocks per task id
system.cpu.dcache.tags.age_task_id_blocks_1024::1          752                       # Occupied blocks per task id
system.cpu.dcache.tags.age_task_id_blocks_1024::2         3136                       # Occupied blocks per task id
system.cpu.dcache.tags.age_task_id_blocks_1024::3         3419                       # Occupied blocks per task id
system.cpu.dcache.tags.age_task_id_blocks_1024::4          884                       # Occupied blocks per task id
system.cpu.dcache.tags.occ_task_id_percent::1024            1                       # Percentage of cache occupancy per task id
system.cpu.dcache.tags.tag_accesses         601200378                       # Number of tag accesses
system.cpu.dcache.tags.data_accesses        601200378                       # Number of data accesses
system.cpu.dcache.ReadReq_hits::cpu.data    208991786                       # number of ReadReq hits
system.cpu.dcache.ReadReq_hits::total       208991786                       # number of ReadReq hits
system.cpu.dcache.WriteReq_hits::cpu.data     71466397                       # number of WriteReq hits
system.cpu.dcache.WriteReq_hits::total       71466397                       # number of WriteReq hits
system.cpu.dcache.demand_hits::cpu.data     280458183                       # number of demand (read+write) hits
system.cpu.dcache.demand_hits::total        280458183                       # number of demand (read+write) hits
system.cpu.dcache.overall_hits::cpu.data    280458183                       # number of overall hits
system.cpu.dcache.overall_hits::total       280458183                       # number of overall hits
system.cpu.dcache.ReadReq_misses::cpu.data     12409774                       # number of ReadReq misses
system.cpu.dcache.ReadReq_misses::total      12409774                       # number of ReadReq misses
system.cpu.dcache.WriteReq_misses::cpu.data      1018230                       # number of WriteReq misses
system.cpu.dcache.WriteReq_misses::total      1018230                       # number of WriteReq misses
system.cpu.dcache.demand_misses::cpu.data     13428004                       # number of demand (read+write) misses
system.cpu.dcache.demand_misses::total       13428004                       # number of demand (read+write) misses
system.cpu.dcache.overall_misses::cpu.data     13428004                       # number of overall misses
system.cpu.dcache.overall_misses::total      13428004                       # number of overall misses
system.cpu.dcache.ReadReq_miss_latency::cpu.data 846236820000                       # number of ReadReq miss cycles
system.cpu.dcache.ReadReq_miss_latency::total 846236820000                       # number of ReadReq miss cycles
system.cpu.dcache.WriteReq_miss_latency::cpu.data  62361014500                       # number of WriteReq miss cycles
system.cpu.dcache.WriteReq_miss_latency::total  62361014500                       # number of WriteReq miss cycles
system.cpu.dcache.demand_miss_latency::cpu.data 908597834500                       # number of demand (read+write) miss cycles
system.cpu.dcache.demand_miss_latency::total 908597834500                       # number of demand (read+write) miss cycles
system.cpu.dcache.overall_miss_latency::cpu.data 908597834500                       # number of overall miss cycles
system.cpu.dcache.overall_miss_latency::total 908597834500                       # number of overall miss cycles
system.cpu.dcache.ReadReq_accesses::cpu.data    221401560                       # number of ReadReq accesses(hits+misses)
system.cpu.dcache.ReadReq_accesses::total    221401560                       # number of ReadReq accesses(hits+misses)
system.cpu.dcache.WriteReq_accesses::cpu.data     72484627                       # number of WriteReq accesses(hits+misses)
system.cpu.dcache.WriteReq_accesses::total     72484627                       # number of WriteReq accesses(hits+misses)
system.cpu.dcache.demand_accesses::cpu.data    293886187                       # number of demand (read+write) accesses
system.cpu.dcache.demand_accesses::total    293886187                       # number of demand (read+write) accesses
system.cpu.dcache.overall_accesses::cpu.data    293886187                       # number of overall (read+write) accesses
system.cpu.dcache.overall_accesses::total    293886187                       # number of overall (read+write) accesses
system.cpu.dcache.ReadReq_miss_rate::cpu.data     0.056051                       # miss rate for ReadReq accesses
system.cpu.dcache.ReadReq_miss_rate::total     0.056051                       # miss rate for ReadReq accesses
system.cpu.dcache.WriteReq_miss_rate::cpu.data     0.014048                       # miss rate for WriteReq accesses
system.cpu.dcache.WriteReq_miss_rate::total     0.014048                       # miss rate for WriteReq accesses
system.cpu.dcache.demand_miss_rate::cpu.data     0.045691                       # miss rate for demand accesses
system.cpu.dcache.demand_miss_rate::total     0.045691                       # miss rate for demand accesses
system.cpu.dcache.overall_miss_rate::cpu.data     0.045691                       # miss rate for overall accesses
system.cpu.dcache.overall_miss_rate::total     0.045691                       # miss rate for overall accesses
system.cpu.dcache.ReadReq_avg_miss_latency::cpu.data 68191.154811                       # average ReadReq miss latency
system.cpu.dcache.ReadReq_avg_miss_latency::total 68191.154811                       # average ReadReq miss latency
system.cpu.dcache.WriteReq_avg_miss_latency::cpu.data 61244.526777                       # average WriteReq miss latency
system.cpu.dcache.WriteReq_avg_miss_latency::total 61244.526777                       # average WriteReq miss latency
system.cpu.dcache.demand_avg_miss_latency::cpu.data 67664.400048                       # average overall miss latency
system.cpu.dcache.demand_avg_miss_latency::total 67664.400048                       # average overall miss latency
system.cpu.dcache.overall_avg_miss_latency::cpu.data 67664.400048                       # average overall miss latency
system.cpu.dcache.overall_avg_miss_latency::total 67664.400048                       # average overall miss latency
system.cpu.dcache.blocked_cycles::no_mshrs            0                       # number of cycles access was blocked
system.cpu.dcache.blocked_cycles::no_targets            0                       # number of cycles access was blocked
system.cpu.dcache.blocked::no_mshrs                 0                       # number of cycles access was blocked
system.cpu.dcache.blocked::no_targets               0                       # number of cycles access was blocked
system.cpu.dcache.avg_blocked_cycles::no_mshrs          nan                       # average number of cycles each access was blocked
system.cpu.dcache.avg_blocked_cycles::no_targets          nan                       # average number of cycles each access was blocked
system.cpu.dcache.fast_writes                       0                       # number of fast writes performed
system.cpu.dcache.cache_copies                      0                       # number of cache copies performed
system.cpu.dcache.writebacks::writebacks      3654905                       # number of writebacks
system.cpu.dcache.writebacks::total           3654905                       # number of writebacks
system.cpu.dcache.ReadReq_mshr_misses::cpu.data     12409774                       # number of ReadReq MSHR misses
system.cpu.dcache.ReadReq_mshr_misses::total     12409774                       # number of ReadReq MSHR misses
system.cpu.dcache.WriteReq_mshr_misses::cpu.data      1018230                       # number of WriteReq MSHR misses
system.cpu.dcache.WriteReq_mshr_misses::total      1018230                       # number of WriteReq MSHR misses
system.cpu.dcache.demand_mshr_misses::cpu.data     13428004                       # number of demand (read+write) MSHR misses
system.cpu.dcache.demand_mshr_misses::total     13428004                       # number of demand (read+write) MSHR misses
system.cpu.dcache.overall_mshr_misses::cpu.data     13428004                       # number of overall MSHR misses
system.cpu.dcache.overall_mshr_misses::total     13428004                       # number of overall MSHR misses
system.cpu.dcache.ReadReq_mshr_miss_latency::cpu.data 833827046000                       # number of ReadReq MSHR miss cycles
system.cpu.dcache.ReadReq_mshr_miss_latency::total 833827046000                       # number of ReadReq MSHR miss cycles
system.cpu.dcache.WriteReq_mshr_miss_latency::cpu.data  61342784500                       # number of WriteReq MSHR miss cycles
system.cpu.dcache.WriteReq_mshr_miss_latency::total  61342784500                       # number of WriteReq MSHR miss cycles
system.cpu.dcache.demand_mshr_miss_latency::cpu.data 895169830500                       # number of demand (read+write) MSHR miss cycles
system.cpu.dcache.demand_mshr_miss_latency::total 895169830500                       # number of demand (read+write) MSHR miss cycles
system.cpu.dcache.overall_mshr_miss_latency::cpu.data 895169830500                       # number of overall MSHR miss cycles
system.cpu.dcache.overall_mshr_miss_latency::total 895169830500                       # number of overall MSHR miss cycles
system.cpu.dcache.ReadReq_mshr_miss_rate::cpu.data     0.056051                       # mshr miss rate for ReadReq accesses
system.cpu.dcache.ReadReq_mshr_miss_rate::total     0.056051                       # mshr miss rate for ReadReq accesses
system.cpu.dcache.WriteReq_mshr_miss_rate::cpu.data     0.014048                       # mshr miss rate for WriteReq accesses
system.cpu.dcache.WriteReq_mshr_miss_rate::total     0.014048                       # mshr miss rate for WriteReq accesses
system.cpu.dcache.demand_mshr_miss_rate::cpu.data     0.045691                       # mshr miss rate for demand accesses
system.cpu.dcache.demand_mshr_miss_rate::total     0.045691                       # mshr miss rate for demand accesses
system.cpu.dcache.overall_mshr_miss_rate::cpu.data     0.045691                       # mshr miss rate for overall accesses
system.cpu.dcache.overall_mshr_miss_rate::total     0.045691                       # mshr miss rate for overall accesses
system.cpu.dcache.ReadReq_avg_mshr_miss_latency::cpu.data 67191.154811                       # average ReadReq mshr miss latency
system.cpu.dcache.ReadReq_avg_mshr_miss_latency::total 67191.154811                       # average ReadReq mshr miss latency
system.cpu.dcache.WriteReq_avg_mshr_miss_latency::cpu.data 60244.526777                       # average WriteReq mshr miss latency
system.cpu.dcache.WriteReq_avg_mshr_miss_latency::total 60244.526777                       # average WriteReq mshr miss latency
system.cpu.dcache.demand_avg_mshr_miss_latency::cpu.data 66664.400048                       # average overall mshr miss latency
system.cpu.dcache.demand_avg_mshr_miss_latency::total 66664.400048                       # average overall mshr miss latency
system.cpu.dcache.overall_avg_mshr_miss_latency::cpu.data 66664.400048                       # average overall mshr miss latency
system.cpu.dcache.overall_avg_mshr_miss_latency::total 66664.400048                       # average overall mshr miss latency
system.cpu.dcache.no_allocate_misses                0                       # Number of misses that were no-allocate
system.cpu.dtb_walker_cache.tags.replacements            0                       # number of replacements
system.cpu.dtb_walker_cache.tags.tagsinuse            0                       # Cycle average of tags in use
system.cpu.dtb_walker_cache.tags.total_refs            0                       # Total number of references to valid blocks.
system.cpu.dtb_walker_cache.tags.sampled_refs            0                       # Sample count of references to valid blocks.
system.cpu.dtb_walker_cache.tags.avg_refs          nan                       # Average number of references to valid blocks.
system.cpu.dtb_walker_cache.tags.warmup_cycle            0                       # Cycle when the warmup percentage was hit.
system.cpu.dtb_walker_cache.tags.tag_accesses            0                       # Number of tag accesses
system.cpu.dtb_walker_cache.tags.data_accesses            0                       # Number of data accesses
system.cpu.dtb_walker_cache.blocked_cycles::no_mshrs            0                       # number of cycles access was blocked
system.cpu.dtb_walker_cache.blocked_cycles::no_targets            0                       # number of cycles access was blocked
system.cpu.dtb_walker_cache.blocked::no_mshrs            0                       # number of cycles access was blocked
system.cpu.dtb_walker_cache.blocked::no_targets            0                       # number of cycles access was blocked
system.cpu.dtb_walker_cache.avg_blocked_cycles::no_mshrs          nan                       # average number of cycles each access was blocked
system.cpu.dtb_walker_cache.avg_blocked_cycles::no_targets          nan                       # average number of cycles each access was blocked
system.cpu.dtb_walker_cache.fast_writes             0                       # number of fast writes performed
system.cpu.dtb_walker_cache.cache_copies            0                       # number of cache copies performed
system.cpu.dtb_walker_cache.no_allocate_misses            0                       # Number of misses that were no-allocate
system.cpu.icache.tags.replacements                30                       # number of replacements
system.cpu.icache.tags.tagsinuse          1860.311416                       # Cycle average of tags in use
system.cpu.icache.tags.total_refs           677315941                       # Total number of references to valid blocks.
system.cpu.icache.tags.sampled_refs              2005                       # Sample count of references to valid blocks.
system.cpu.icache.tags.avg_refs          337813.436908                       # Average number of references to valid blocks.
system.cpu.icache.tags.warmup_cycle                 0                       # Cycle when the warmup percentage was hit.
system.cpu.icache.tags.occ_blocks::cpu.inst  1860.311416                       # Average occupied blocks per requestor
system.cpu.icache.tags.occ_percent::cpu.inst     0.227089                       # Average percentage of cache occupancy
system.cpu.icache.tags.occ_percent::total     0.227089                       # Average percentage of cache occupancy
system.cpu.icache.tags.occ_task_id_blocks::1024         1975                       # Occupied blocks per task id
system.cpu.icache.tags.age_task_id_blocks_1024::4         1975                       # Occupied blocks per task id
system.cpu.icache.tags.occ_task_id_percent::1024     0.241089                       # Percentage of cache occupancy per task id
system.cpu.icache.tags.tag_accesses        1354637897                       # Number of tag accesses
system.cpu.icache.tags.data_accesses       1354637897                       # Number of data accesses
system.cpu.icache.ReadReq_hits::cpu.inst    677315941                       # number of ReadReq hits
system.cpu.icache.ReadReq_hits::total       677315941                       # number of ReadReq hits
system.cpu.icache.demand_hits::cpu.inst     677315941                       # number of demand (read+write) hits
system.cpu.icache.demand_hits::total        677315941                       # number of demand (read+write) hits
system.cpu.icache.overall_hits::cpu.inst    677315941                       # number of overall hits
system.cpu.icache.overall_hits::total       677315941                       # number of overall hits
system.cpu.icache.ReadReq_misses::cpu.inst         2005                       # number of ReadReq misses
system.cpu.icache.ReadReq_misses::total          2005                       # number of ReadReq misses
system.cpu.icache.demand_misses::cpu.inst         2005                       # number of demand (read+write) misses
system.cpu.icache.demand_misses::total           2005                       # number of demand (read+write) misses
system.cpu.icache.overall_misses::cpu.inst         2005                       # number of overall misses
system.cpu.icache.overall_misses::total          2005                       # number of overall misses
system.cpu.icache.ReadReq_miss_latency::cpu.inst    155083500                       # number of ReadReq miss cycles
system.cpu.icache.ReadReq_miss_latency::total    155083500                       # number of ReadReq miss cycles
system.cpu.icache.demand_miss_latency::cpu.inst    155083500                       # number of demand (read+write) miss cycles
system.cpu.icache.demand_miss_latency::total    155083500                       # number of demand (read+write) miss cycles
system.cpu.icache.overall_miss_latency::cpu.inst    155083500                       # number of overall miss cycles
system.cpu.icache.overall_miss_latency::total    155083500                       # number of overall miss cycles
system.cpu.icache.ReadReq_accesses::cpu.inst    677317946                       # number of ReadReq accesses(hits+misses)
system.cpu.icache.ReadReq_accesses::total    677317946                       # number of ReadReq accesses(hits+misses)
system.cpu.icache.demand_accesses::cpu.inst    677317946                       # number of demand (read+write) accesses
system.cpu.icache.demand_accesses::total    677317946                       # number of demand (read+write) accesses
system.cpu.icache.overall_accesses::cpu.inst    677317946                       # number of overall (read+write) accesses
system.cpu.icache.overall_accesses::total    677317946                       # number of overall (read+write) accesses
system.cpu.icache.ReadReq_miss_rate::cpu.inst     0.000003                       # miss rate for ReadReq accesses
system.cpu.icache.ReadReq_miss_rate::total     0.000003                       # miss rate for ReadReq accesses
system.cpu.icache.demand_miss_rate::cpu.inst     0.000003                       # miss rate for demand accesses
system.cpu.icache.demand_miss_rate::total     0.000003                       # miss rate for demand accesses
system.cpu.icache.overall_miss_rate::cpu.inst     0.000003                       # miss rate for overall accesses
system.cpu.icache.overall_miss_rate::total     0.000003                       # miss rate for overall accesses
system.cpu.icache.ReadReq_avg_miss_latency::cpu.inst 77348.379052                       # average ReadReq miss latency
system.cpu.icache.ReadReq_avg_miss_latency::total 77348.379052                       # average ReadReq miss latency
system.cpu.icache.demand_avg_miss_latency::cpu.inst 77348.379052                       # average overall miss latency
system.cpu.icache.demand_avg_miss_latency::total 77348.379052                       # average overall miss latency
system.cpu.icache.overall_avg_miss_latency::cpu.inst 77348.379052                       # average overall miss latency
system.cpu.icache.overall_avg_miss_latency::total 77348.379052                       # average overall miss latency
system.cpu.icache.blocked_cycles::no_mshrs            0                       # number of cycles access was blocked
system.cpu.icache.blocked_cycles::no_targets            0                       # number of cycles access was blocked
system.cpu.icache.blocked::no_mshrs                 0                       # number of cycles access was blocked
system.cpu.icache.blocked::no_targets               0                       # number of cycles access was blocked
system.cpu.icache.avg_blocked_cycles::no_mshrs          nan                       # average number of cycles each access was blocked
system.cpu.icache.avg_blocked_cycles::no_targets          nan                       # average number of cycles each access was blocked
system.cpu.icache.fast_writes                       0                       # number of fast writes performed
system.cpu.icache.cache_copies                      0                       # number of cache copies performed
system.cpu.icache.writebacks::writebacks           30                       # number of writebacks
system.cpu.icache.writebacks::total                30                       # number of writebacks
system.cpu.icache.ReadReq_mshr_misses::cpu.inst         2005                       # number of ReadReq MSHR misses
system.cpu.icache.ReadReq_mshr_misses::total         2005                       # number of ReadReq MSHR misses
system.cpu.icache.demand_mshr_misses::cpu.inst         2005                       # number of demand (read+write) MSHR misses
system.cpu.icache.demand_mshr_misses::total         2005                       # number of demand (read+write) MSHR misses
system.cpu.icache.overall_mshr_misses::cpu.inst         2005                       # number of overall MSHR misses
system.cpu.icache.overall_mshr_misses::total         2005                       # number of overall MSHR misses
system.cpu.icache.ReadReq_mshr_miss_latency::cpu.inst    153078500                       # number of ReadReq MSHR miss cycles
system.cpu.icache.ReadReq_mshr_miss_latency::total    153078500                       # number of ReadReq MSHR miss cycles
system.cpu.icache.demand_mshr_miss_latency::cpu.inst    153078500                       # number of demand (read+write) MSHR miss cycles
system.cpu.icache.demand_mshr_miss_latency::total    153078500                       # number of demand (read+write) MSHR miss cycles
system.cpu.icache.overall_mshr_miss_latency::cpu.inst    153078500                       # number of overall MSHR miss cycles
system.cpu.icache.overall_mshr_miss_latency::total    153078500                       # number of overall MSHR miss cycles
system.cpu.icache.ReadReq_mshr_miss_rate::cpu.inst     0.000003                       # mshr miss rate for ReadReq accesses
system.cpu.icache.ReadReq_mshr_miss_rate::total     0.000003                       # mshr miss rate for ReadReq accesses
system.cpu.icache.demand_mshr_miss_rate::cpu.inst     0.000003                       # mshr miss rate for demand accesses
system.cpu.icache.demand_mshr_miss_rate::total     0.000003                       # mshr miss rate for demand accesses
system.cpu.icache.overall_mshr_miss_rate::cpu.inst     0.000003                       # mshr miss rate for overall accesses
system.cpu.icache.overall_mshr_miss_rate::total     0.000003                       # mshr miss rate for overall accesses
system.cpu.icache.ReadReq_avg_mshr_miss_latency::cpu.inst 76348.379052                       # average ReadReq mshr miss latency
system.cpu.icache.ReadReq_avg_mshr_miss_latency::total 76348.379052                       # average ReadReq mshr miss latency
system.cpu.icache.demand_avg_mshr_miss_latency::cpu.inst 76348.379052                       # average overall mshr miss latency
system.cpu.icache.demand_avg_mshr_miss_latency::total 76348.379052                       # average overall mshr miss latency
system.cpu.icache.overall_avg_mshr_miss_latency::cpu.inst 76348.379052                       # average overall mshr miss latency
system.cpu.icache.overall_avg_mshr_miss_latency::total 76348.379052                       # average overall mshr miss latency
system.cpu.icache.no_allocate_misses                0                       # Number of misses that were no-allocate
system.cpu.itb_walker_cache.tags.replacements            0                       # number of replacements
system.cpu.itb_walker_cache.tags.tagsinuse            0                       # Cycle average of tags in use
system.cpu.itb_walker_cache.tags.total_refs            0                       # Total number of references to valid blocks.
system.cpu.itb_walker_cache.tags.sampled_refs            0                       # Sample count of references to valid blocks.
system.cpu.itb_walker_cache.tags.avg_refs          nan                       # Average number of references to valid blocks.
system.cpu.itb_walker_cache.tags.warmup_cycle            0                       # Cycle when the warmup percentage was hit.
system.cpu.itb_walker_cache.tags.tag_accesses            0                       # Number of tag accesses
system.cpu.itb_walker_cache.tags.data_accesses            0                       # Number of data accesses
system.cpu.itb_walker_cache.blocked_cycles::no_mshrs            0                       # number of cycles access was blocked
system.cpu.itb_walker_cache.blocked_cycles::no_targets            0                       # number of cycles access was blocked
system.cpu.itb_walker_cache.blocked::no_mshrs            0                       # number of cycles access was blocked
system.cpu.itb_walker_cache.blocked::no_targets            0                       # number of cycles access was blocked
system.cpu.itb_walker_cache.avg_blocked_cycles::no_mshrs          nan                       # average number of cycles each access was blocked
system.cpu.itb_walker_cache.avg_blocked_cycles::no_targets          nan                       # average number of cycles each access was blocked
system.cpu.itb_walker_cache.fast_writes             0                       # number of fast writes performed
system.cpu.itb_walker_cache.cache_copies            0                       # number of cache copies performed
system.cpu.itb_walker_cache.no_allocate_misses            0                       # Number of misses that were no-allocate
system.l2.tags.replacements                  10067460                       # number of replacements
system.l2.tags.tagsinuse                 63436.320218                       # Cycle average of tags in use
system.l2.tags.total_refs                    15114277                       # Total number of references to valid blocks.
system.l2.tags.sampled_refs                  10132754                       # Sample count of references to valid blocks.
system.l2.tags.avg_refs                      1.491626                       # Average number of references to valid blocks.
system.l2.tags.warmup_cycle              1852391348500                       # Cycle when the warmup percentage was hit.
system.l2.tags.occ_blocks::writebacks    35316.814969                       # Average occupied blocks per requestor
system.l2.tags.occ_blocks::cpu.inst         13.880957                       # Average occupied blocks per requestor
system.l2.tags.occ_blocks::cpu.data      28105.624292                       # Average occupied blocks per requestor
system.l2.tags.occ_percent::writebacks       0.538892                       # Average percentage of cache occupancy
system.l2.tags.occ_percent::cpu.inst         0.000212                       # Average percentage of cache occupancy
system.l2.tags.occ_percent::cpu.data         0.428858                       # Average percentage of cache occupancy
system.l2.tags.occ_percent::total            0.967961                       # Average percentage of cache occupancy
system.l2.tags.occ_task_id_blocks::1024         65294                       # Occupied blocks per task id
system.l2.tags.age_task_id_blocks_1024::1          627                       # Occupied blocks per task id
system.l2.tags.age_task_id_blocks_1024::2         4755                       # Occupied blocks per task id
system.l2.tags.age_task_id_blocks_1024::3        19050                       # Occupied blocks per task id
system.l2.tags.age_task_id_blocks_1024::4        40862                       # Occupied blocks per task id
system.l2.tags.occ_task_id_percent::1024     0.996307                       # Percentage of cache occupancy per task id
system.l2.tags.tag_accesses                  38000835                       # Number of tag accesses
system.l2.tags.data_accesses                 38000835                       # Number of data accesses
system.l2.WritebackDirty_hits::writebacks      3654905                       # number of WritebackDirty hits
system.l2.WritebackDirty_hits::total          3654905                       # number of WritebackDirty hits
system.l2.WritebackClean_hits::writebacks           30                       # number of WritebackClean hits
system.l2.WritebackClean_hits::total               30                       # number of WritebackClean hits
system.l2.ReadExReq_hits::cpu.data             308265                       # number of ReadExReq hits
system.l2.ReadExReq_hits::total                308265                       # number of ReadExReq hits
system.l2.ReadSharedReq_hits::cpu.data        3100159                       # number of ReadSharedReq hits
system.l2.ReadSharedReq_hits::total           3100159                       # number of ReadSharedReq hits
system.l2.demand_hits::cpu.data               3408424                       # number of demand (read+write) hits
system.l2.demand_hits::total                  3408424                       # number of demand (read+write) hits
system.l2.overall_hits::cpu.data              3408424                       # number of overall hits
system.l2.overall_hits::total                 3408424                       # number of overall hits
system.l2.ReadExReq_misses::cpu.data           709965                       # number of ReadExReq misses
system.l2.ReadExReq_misses::total              709965                       # number of ReadExReq misses
system.l2.ReadCleanReq_misses::cpu.inst          2005                       # number of ReadCleanReq misses
system.l2.ReadCleanReq_misses::total             2005                       # number of ReadCleanReq misses
system.l2.ReadSharedReq_misses::cpu.data      9309615                       # number of ReadSharedReq misses
system.l2.ReadSharedReq_misses::total         9309615                       # number of ReadSharedReq misses
system.l2.demand_misses::cpu.inst                2005                       # number of demand (read+write) misses
system.l2.demand_misses::cpu.data            10019580                       # number of demand (read+write) misses
system.l2.demand_misses::total               10021585                       # number of demand (read+write) misses
system.l2.overall_misses::cpu.inst               2005                       # number of overall misses
system.l2.overall_misses::cpu.data           10019580                       # number of overall misses
system.l2.overall_misses::total              10021585                       # number of overall misses
system.l2.ReadExReq_miss_latency::cpu.data  56578657000                       # number of ReadExReq miss cycles
system.l2.ReadExReq_miss_latency::total   56578657000                       # number of ReadExReq miss cycles
system.l2.ReadCleanReq_miss_latency::cpu.inst    150071000                       # number of ReadCleanReq miss cycles
system.l2.ReadCleanReq_miss_latency::total    150071000                       # number of ReadCleanReq miss cycles
system.l2.ReadSharedReq_miss_latency::cpu.data 782660715000                       # number of ReadSharedReq miss cycles
system.l2.ReadSharedReq_miss_latency::total 782660715000                       # number of ReadSharedReq miss cycles
system.l2.demand_miss_latency::cpu.inst     150071000                       # number of demand (read+write) miss cycles
system.l2.demand_miss_latency::cpu.data  839239372000                       # number of demand (read+write) miss cycles
system.l2.demand_miss_latency::total     839389443000                       # number of demand (read+write) miss cycles
system.l2.overall_miss_latency::cpu.inst    150071000                       # number of overall miss cycles
system.l2.overall_miss_latency::cpu.data 839239372000                       # number of overall miss cycles
system.l2.overall_miss_latency::total    839389443000                       # number of overall miss cycles
system.l2.WritebackDirty_accesses::writebacks      3654905                       # number of WritebackDirty accesses(hits+misses)
system.l2.WritebackDirty_accesses::total      3654905                       # number of WritebackDirty accesses(hits+misses)
system.l2.WritebackClean_accesses::writebacks           30                       # number of WritebackClean accesses(hits+misses)
system.l2.WritebackClean_accesses::total           30                       # number of WritebackClean accesses(hits+misses)
system.l2.ReadExReq_accesses::cpu.data        1018230                       # number of ReadExReq accesses(hits+misses)
system.l2.ReadExReq_accesses::total           1018230                       # number of ReadExReq accesses(hits+misses)
system.l2.ReadCleanReq_accesses::cpu.inst         2005                       # number of ReadCleanReq accesses(hits+misses)
system.l2.ReadCleanReq_accesses::total           2005                       # number of ReadCleanReq accesses(hits+misses)
system.l2.ReadSharedReq_accesses::cpu.data     12409774                       # number of ReadSharedReq accesses(hits+misses)
system.l2.ReadSharedReq_accesses::total      12409774                       # number of ReadSharedReq accesses(hits+misses)
system.l2.demand_accesses::cpu.inst              2005                       # number of demand (read+write) accesses
system.l2.demand_accesses::cpu.data          13428004                       # number of demand (read+write) accesses
system.l2.demand_accesses::total             13430009                       # number of demand (read+write) accesses
system.l2.overall_accesses::cpu.inst             2005                       # number of overall (read+write) accesses
system.l2.overall_accesses::cpu.data         13428004                       # number of overall (read+write) accesses
system.l2.overall_accesses::total            13430009                       # number of overall (read+write) accesses
system.l2.ReadExReq_miss_rate::cpu.data      0.697254                       # miss rate for ReadExReq accesses
system.l2.ReadExReq_miss_rate::total         0.697254                       # miss rate for ReadExReq accesses
system.l2.ReadCleanReq_miss_rate::cpu.inst            1                       # miss rate for ReadCleanReq accesses
system.l2.ReadCleanReq_miss_rate::total             1                       # miss rate for ReadCleanReq accesses
system.l2.ReadSharedReq_miss_rate::cpu.data     0.750184                       # miss rate for ReadSharedReq accesses
system.l2.ReadSharedReq_miss_rate::total     0.750184                       # miss rate for ReadSharedReq accesses
system.l2.demand_miss_rate::cpu.inst                1                       # miss rate for demand accesses
system.l2.demand_miss_rate::cpu.data         0.746170                       # miss rate for demand accesses
system.l2.demand_miss_rate::total            0.746208                       # miss rate for demand accesses
system.l2.overall_miss_rate::cpu.inst               1                       # miss rate for overall accesses
system.l2.overall_miss_rate::cpu.data        0.746170                       # miss rate for overall accesses
system.l2.overall_miss_rate::total           0.746208                       # miss rate for overall accesses
system.l2.ReadExReq_avg_miss_latency::cpu.data 79692.177783                       # average ReadExReq miss latency
system.l2.ReadExReq_avg_miss_latency::total 79692.177783                       # average ReadExReq miss latency
system.l2.ReadCleanReq_avg_miss_latency::cpu.inst 74848.379052                       # average ReadCleanReq miss latency
system.l2.ReadCleanReq_avg_miss_latency::total 74848.379052                       # average ReadCleanReq miss latency
system.l2.ReadSharedReq_avg_miss_latency::cpu.data 84070.148443                       # average ReadSharedReq miss latency
system.l2.ReadSharedReq_avg_miss_latency::total 84070.148443                       # average ReadSharedReq miss latency
system.l2.demand_avg_miss_latency::cpu.inst 74848.379052                       # average overall miss latency
system.l2.demand_avg_miss_latency::cpu.data 83759.935247                       # average overall miss latency
system.l2.demand_avg_miss_latency::total 83758.152328                       # average overall miss latency
system.l2.overall_avg_miss_latency::cpu.inst 74848.379052                       # average overall miss latency
system.l2.overall_avg_miss_latency::cpu.data 83759.935247                       # average overall miss latency
system.l2.overall_avg_miss_latency::total 83758.152328                       # average overall miss latency
system.l2.blocked_cycles::no_mshrs                  0                       # number of cycles access was blocked
system.l2.blocked_cycles::no_targets                0                       # number of cycles access was blocked
system.l2.blocked::no_mshrs                         0                       # number of cycles access was blocked
system.l2.blocked::no_targets                       0                       # number of cycles access was blocked
system.l2.avg_blocked_cycles::no_mshrs            nan                       # average number of cycles each access was blocked
system.l2.avg_blocked_cycles::no_targets          nan                       # average number of cycles each access was blocked
system.l2.fast_writes                               0                       # number of fast writes performed
system.l2.cache_copies                              0                       # number of cache copies performed
system.l2.writebacks::writebacks              1187543                       # number of writebacks
system.l2.writebacks::total                   1187543                       # number of writebacks
system.l2.CleanEvict_mshr_misses::writebacks       574782                       # number of CleanEvict MSHR misses
system.l2.CleanEvict_mshr_misses::total        574782                       # number of CleanEvict MSHR misses
system.l2.ReadExReq_mshr_misses::cpu.data       709965                       # number of ReadExReq MSHR misses
system.l2.ReadExReq_mshr_misses::total         709965                       # number of ReadExReq MSHR misses
system.l2.ReadCleanReq_mshr_misses::cpu.inst         2005                       # number of ReadCleanReq MSHR misses
system.l2.ReadCleanReq_mshr_misses::total         2005                       # number of ReadCleanReq MSHR misses
system.l2.ReadSharedReq_mshr_misses::cpu.data      9309615                       # number of ReadSharedReq MSHR misses
system.l2.ReadSharedReq_mshr_misses::total      9309615                       # number of ReadSharedReq MSHR misses
system.l2.demand_mshr_misses::cpu.inst           2005                       # number of demand (read+write) MSHR misses
system.l2.demand_mshr_misses::cpu.data       10019580                       # number of demand (read+write) MSHR misses
system.l2.demand_mshr_misses::total          10021585                       # number of demand (read+write) MSHR misses
system.l2.overall_mshr_misses::cpu.inst          2005                       # number of overall MSHR misses
system.l2.overall_mshr_misses::cpu.data      10019580                       # number of overall MSHR misses
system.l2.overall_mshr_misses::total         10021585                       # number of overall MSHR misses
system.l2.ReadExReq_mshr_miss_latency::cpu.data  49479007000                       # number of ReadExReq MSHR miss cycles
system.l2.ReadExReq_mshr_miss_latency::total  49479007000                       # number of ReadExReq MSHR miss cycles
system.l2.ReadCleanReq_mshr_miss_latency::cpu.inst    130021000                       # number of ReadCleanReq MSHR miss cycles
system.l2.ReadCleanReq_mshr_miss_latency::total    130021000                       # number of ReadCleanReq MSHR miss cycles
system.l2.ReadSharedReq_mshr_miss_latency::cpu.data 689564565000                       # number of ReadSharedReq MSHR miss cycles
system.l2.ReadSharedReq_mshr_miss_latency::total 689564565000                       # number of ReadSharedReq MSHR miss cycles
system.l2.demand_mshr_miss_latency::cpu.inst    130021000                       # number of demand (read+write) MSHR miss cycles
system.l2.demand_mshr_miss_latency::cpu.data 739043572000                       # number of demand (read+write) MSHR miss cycles
system.l2.demand_mshr_miss_latency::total 739173593000                       # number of demand (read+write) MSHR miss cycles
system.l2.overall_mshr_miss_latency::cpu.inst    130021000                       # number of overall MSHR miss cycles
system.l2.overall_mshr_miss_latency::cpu.data 739043572000                       # number of overall MSHR miss cycles
system.l2.overall_mshr_miss_latency::total 739173593000                       # number of overall MSHR miss cycles
system.l2.CleanEvict_mshr_miss_rate::writebacks          inf                       # mshr miss rate for CleanEvict accesses
system.l2.CleanEvict_mshr_miss_rate::total          inf                       # mshr miss rate for CleanEvict accesses
system.l2.ReadExReq_mshr_miss_rate::cpu.data     0.697254                       # mshr miss rate for ReadExReq accesses
system.l2.ReadExReq_mshr_miss_rate::total     0.697254                       # mshr miss rate for ReadExReq accesses
system.l2.ReadCleanReq_mshr_miss_rate::cpu.inst            1                       # mshr miss rate for ReadCleanReq accesses
system.l2.ReadCleanReq_mshr_miss_rate::total            1                       # mshr miss rate for ReadCleanReq accesses
system.l2.ReadSharedReq_mshr_miss_rate::cpu.data     0.750184                       # mshr miss rate for ReadSharedReq accesses
system.l2.ReadSharedReq_mshr_miss_rate::total     0.750184                       # mshr miss rate for ReadSharedReq accesses
system.l2.demand_mshr_miss_rate::cpu.inst            1                       # mshr miss rate for demand accesses
system.l2.demand_mshr_miss_rate::cpu.data     0.746170                       # mshr miss rate for demand accesses
system.l2.demand_mshr_miss_rate::total       0.746208                       # mshr miss rate for demand accesses
system.l2.overall_mshr_miss_rate::cpu.inst            1                       # mshr miss rate for overall accesses
system.l2.overall_mshr_miss_rate::cpu.data     0.746170                       # mshr miss rate for overall accesses
system.l2.overall_mshr_miss_rate::total      0.746208                       # mshr miss rate for overall accesses
system.l2.ReadExReq_avg_mshr_miss_latency::cpu.data 69692.177783                       # average ReadExReq mshr miss latency
system.l2.ReadExReq_avg_mshr_miss_latency::total 69692.177783                       # average ReadExReq mshr miss latency
system.l2.ReadCleanReq_avg_mshr_miss_latency::cpu.inst 64848.379052                       # average ReadCleanReq mshr miss latency
system.l2.ReadCleanReq_avg_mshr_miss_latency::total 64848.379052                       # average ReadCleanReq mshr miss latency
system.l2.ReadSharedReq_avg_mshr_miss_latency::cpu.data 74070.148443                       # average ReadSharedReq mshr miss latency
system.l2.ReadSharedReq_avg_mshr_miss_latency::total 74070.148443                       # average ReadSharedReq mshr miss latency
system.l2.demand_avg_mshr_miss_latency::cpu.inst 64848.379052                       # average overall mshr miss latency
system.l2.demand_avg_mshr_miss_latency::cpu.data 73759.935247                       # average overall mshr miss latency
system.l2.demand_avg_mshr_miss_latency::total 73758.152328                       # average overall mshr miss latency
system.l2.overall_avg_mshr_miss_latency::cpu.inst 64848.379052                       # average overall mshr miss latency
system.l2.overall_avg_mshr_miss_latency::cpu.data 73759.935247                       # average overall mshr miss latency
system.l2.overall_avg_mshr_miss_latency::total 73758.152328                       # average overall mshr miss latency
system.l2.no_allocate_misses                        0                       # Number of misses that were no-allocate
system.membus.trans_dist::ReadResp            9311620                       # Transaction distribution
system.membus.trans_dist::WritebackDirty      1187543                       # Transaction distribution
system.membus.trans_dist::CleanEvict          8766346                       # Transaction distribution
system.membus.trans_dist::ReadExReq            709965                       # Transaction distribution
system.membus.trans_dist::ReadExResp           709965                       # Transaction distribution
system.membus.trans_dist::ReadSharedReq       9311620                       # Transaction distribution
system.membus.pkt_count_system.l2.mem_side::system.mem_ctrls.port     29997059                       # Packet count per connected master and slave (bytes)
system.membus.pkt_count_system.l2.mem_side::total     29997059                       # Packet count per connected master and slave (bytes)
system.membus.pkt_count::total               29997059                       # Packet count per connected master and slave (bytes)
system.membus.pkt_size_system.l2.mem_side::system.mem_ctrls.port    179346048                       # Cumulative packet size per connected master and slave (bytes)
system.membus.pkt_size_system.l2.mem_side::total    179346048                       # Cumulative packet size per connected master and slave (bytes)
system.membus.pkt_size::total               179346048                       # Cumulative packet size per connected master and slave (bytes)
system.membus.snoops                                0                       # Total snoops (count)
system.membus.snoop_fanout::samples          19975474                       # Request fanout histogram
system.membus.snoop_fanout::mean                    0                       # Request fanout histogram
system.membus.snoop_fanout::stdev                   0                       # Request fanout histogram
system.membus.snoop_fanout::underflows              0      0.00%      0.00% # Request fanout histogram
system.membus.snoop_fanout::0                19975474    100.00%    100.00% # Request fanout histogram
system.membus.snoop_fanout::1                       0      0.00%    100.00% # Request fanout histogram
system.membus.snoop_fanout::overflows               0      0.00%    100.00% # Request fanout histogram
system.membus.snoop_fanout::min_value               0                       # Request fanout histogram
system.membus.snoop_fanout::max_value               0                       # Request fanout histogram
system.membus.snoop_fanout::total            19975474                       # Request fanout histogram
system.membus.reqLayer2.occupancy         21182780000                       # Layer occupancy (ticks)
system.membus.reqLayer2.utilization               1.1                       # Layer utilization (%)
system.membus.respLayer1.occupancy        24495473750                       # Layer occupancy (ticks)
system.membus.respLayer1.utilization              1.3                       # Layer utilization (%)
system.tol2bus.snoop_filter.tot_requests     26849851                       # Total number of requests made to the snoop filter.
system.tol2bus.snoop_filter.hit_single_requests     13419842                       # Number of requests hitting in the snoop filter with a single holder of the requested data.
system.tol2bus.snoop_filter.hit_multi_requests            0                       # Number of requests hitting in the snoop filter with multiple (>1) holders of the requested data.
system.tol2bus.snoop_filter.tot_snoops         688353                       # Total number of snoops made to the snoop filter.
system.tol2bus.snoop_filter.hit_single_snoops       688353                       # Number of snoops hitting in the snoop filter with a single holder of the requested data.
system.tol2bus.snoop_filter.hit_multi_snoops            0                       # Number of snoops hitting in the snoop filter with multiple (>1) holders of the requested data.
system.tol2bus.trans_dist::ReadResp          12411779                       # Transaction distribution
system.tol2bus.trans_dist::WritebackDirty      4842448                       # Transaction distribution
system.tol2bus.trans_dist::WritebackClean           30                       # Transaction distribution
system.tol2bus.trans_dist::CleanEvict        18644824                       # Transaction distribution
system.tol2bus.trans_dist::ReadExReq          1018230                       # Transaction distribution
system.tol2bus.trans_dist::ReadExResp         1018230                       # Transaction distribution
system.tol2bus.trans_dist::ReadCleanReq          2005                       # Transaction distribution
system.tol2bus.trans_dist::ReadSharedReq     12409774                       # Transaction distribution
system.tol2bus.pkt_count_system.cpu.icache.mem_side::system.l2.cpu_side         4040                       # Packet count per connected master and slave (bytes)
system.tol2bus.pkt_count_system.cpu.dcache.mem_side::system.l2.cpu_side     40275820                       # Packet count per connected master and slave (bytes)
system.tol2bus.pkt_count::total              40279860                       # Packet count per connected master and slave (bytes)
system.tol2bus.pkt_size_system.cpu.icache.mem_side::system.l2.cpu_side        32560                       # Cumulative packet size per connected master and slave (bytes)
system.tol2bus.pkt_size_system.cpu.dcache.mem_side::system.l2.cpu_side    273326544                       # Cumulative packet size per connected master and slave (bytes)
system.tol2bus.pkt_size::total              273359104                       # Cumulative packet size per connected master and slave (bytes)
system.tol2bus.snoops                        10067460                       # Total snoops (count)
system.tol2bus.snoop_fanout::samples         23497469                       # Request fanout histogram
system.tol2bus.snoop_fanout::mean            0.029295                       # Request fanout histogram
system.tol2bus.snoop_fanout::stdev           0.168632                       # Request fanout histogram
system.tol2bus.snoop_fanout::underflows             0      0.00%      0.00% # Request fanout histogram
system.tol2bus.snoop_fanout::0               22809116     97.07%     97.07% # Request fanout histogram
system.tol2bus.snoop_fanout::1                 688353      2.93%    100.00% # Request fanout histogram
system.tol2bus.snoop_fanout::2                      0      0.00%    100.00% # Request fanout histogram
system.tol2bus.snoop_fanout::3                      0      0.00%    100.00% # Request fanout histogram
system.tol2bus.snoop_fanout::4                      0      0.00%    100.00% # Request fanout histogram
system.tol2bus.snoop_fanout::overflows              0      0.00%    100.00% # Request fanout histogram
system.tol2bus.snoop_fanout::min_value              0                       # Request fanout histogram
system.tol2bus.snoop_fanout::max_value              1                       # Request fanout histogram
system.tol2bus.snoop_fanout::total           23497469                       # Request fanout histogram
system.tol2bus.reqLayer0.occupancy        15252393000                       # Layer occupancy (ticks)
system.tol2bus.reqLayer0.utilization              0.8                       # Layer utilization (%)
system.tol2bus.respLayer0.occupancy           2005000                       # Layer occupancy (ticks)
system.tol2bus.respLayer0.utilization             0.0                       # Layer utilization (%)
system.tol2bus.respLayer1.occupancy       13428004000                       # Layer occupancy (ticks)
system.tol2bus.respLayer1.utilization             0.7                       # Layer utilization (%)

---------- End Simulation Statistics   ----------
