
---------- Begin Simulation Statistics ----------
sim_seconds                                  1.685242                       # Number of seconds simulated
sim_ticks                                1685241722500                       # Number of ticks simulated
final_tick                               1685241722500                       # Number of ticks from beginning of simulation (restored from checkpoints and never reset)
sim_freq                                 1000000000000                       # Frequency of simulated ticks
host_inst_rate                                  66851                       # Simulator instruction rate (inst/s)
host_op_rate                                   117166                       # Simulator op (including micro ops) rate (op/s)
host_tick_rate                              225321518                       # Simulator tick rate (ticks/s)
host_mem_usage                                 824864                       # Number of bytes of host memory used
host_seconds                                  7479.28                       # Real time elapsed on the host
sim_insts                                   500000000                       # Number of instructions simulated
sim_ops                                     876313791                       # Number of ops (including micro ops) simulated
system.voltage_domain.voltage                       1                       # Voltage in Volts
system.clk_domain.clock                          1000                       # Clock period in ticks
system.mem_ctrls.bytes_read::cpu.inst           43456                       # Number of bytes read from this memory
system.mem_ctrls.bytes_read::cpu.data       447333248                       # Number of bytes read from this memory
system.mem_ctrls.bytes_read::total          447376704                       # Number of bytes read from this memory
system.mem_ctrls.bytes_inst_read::cpu.inst        43456                       # Number of instructions bytes read from this memory
system.mem_ctrls.bytes_inst_read::total         43456                       # Number of instructions bytes read from this memory
system.mem_ctrls.bytes_written::writebacks     76252608                       # Number of bytes written to this memory
system.mem_ctrls.bytes_written::total        76252608                       # Number of bytes written to this memory
system.mem_ctrls.num_reads::cpu.inst              679                       # Number of read requests responded to by this memory
system.mem_ctrls.num_reads::cpu.data          6989582                       # Number of read requests responded to by this memory
system.mem_ctrls.num_reads::total             6990261                       # Number of read requests responded to by this memory
system.mem_ctrls.num_writes::writebacks       1191447                       # Number of write requests responded to by this memory
system.mem_ctrls.num_writes::total            1191447                       # Number of write requests responded to by this memory
system.mem_ctrls.bw_read::cpu.inst              25786                       # Total read bandwidth from this memory (bytes/s)
system.mem_ctrls.bw_read::cpu.data          265441593                       # Total read bandwidth from this memory (bytes/s)
system.mem_ctrls.bw_read::total             265467380                       # Total read bandwidth from this memory (bytes/s)
system.mem_ctrls.bw_inst_read::cpu.inst         25786                       # Instruction read bandwidth from this memory (bytes/s)
system.mem_ctrls.bw_inst_read::total            25786                       # Instruction read bandwidth from this memory (bytes/s)
system.mem_ctrls.bw_write::writebacks        45247282                       # Write bandwidth from this memory (bytes/s)
system.mem_ctrls.bw_write::total             45247282                       # Write bandwidth from this memory (bytes/s)
system.mem_ctrls.bw_total::writebacks        45247282                       # Total bandwidth to/from this memory (bytes/s)
system.mem_ctrls.bw_total::cpu.inst             25786                       # Total bandwidth to/from this memory (bytes/s)
system.mem_ctrls.bw_total::cpu.data         265441593                       # Total bandwidth to/from this memory (bytes/s)
system.mem_ctrls.bw_total::total            310714662                       # Total bandwidth to/from this memory (bytes/s)
system.mem_ctrls.readReqs                     6990261                       # Number of read requests accepted
system.mem_ctrls.writeReqs                    1191447                       # Number of write requests accepted
system.mem_ctrls.readBursts                   6990261                       # Number of DRAM read bursts, including those serviced by the write queue
system.mem_ctrls.writeBursts                  1191447                       # Number of DRAM write bursts, including those merged in the write queue
system.mem_ctrls.bytesReadDRAM              446906624                       # Total number of bytes read from DRAM
system.mem_ctrls.bytesReadWrQ                  470080                       # Total number of bytes read from write queue
system.mem_ctrls.bytesWritten                76251456                       # Total number of bytes written to DRAM
system.mem_ctrls.bytesReadSys               447376704                       # Total read bytes from the system interface side
system.mem_ctrls.bytesWrittenSys             76252608                       # Total written bytes from the system interface side
system.mem_ctrls.servicedByWrQ                   7345                       # Number of DRAM read bursts serviced by the write queue
system.mem_ctrls.mergedWrBursts                     0                       # Number of DRAM write bursts merged with an existing one
system.mem_ctrls.neitherReadNorWriteReqs      5789889                       # Number of requests that are neither read nor write
system.mem_ctrls.perBankRdBursts::0            447158                       # Per bank write bursts
system.mem_ctrls.perBankRdBursts::1            438072                       # Per bank write bursts
system.mem_ctrls.perBankRdBursts::2            433058                       # Per bank write bursts
system.mem_ctrls.perBankRdBursts::3            434866                       # Per bank write bursts
system.mem_ctrls.perBankRdBursts::4            426715                       # Per bank write bursts
system.mem_ctrls.perBankRdBursts::5            428844                       # Per bank write bursts
system.mem_ctrls.perBankRdBursts::6            428459                       # Per bank write bursts
system.mem_ctrls.perBankRdBursts::7            427424                       # Per bank write bursts
system.mem_ctrls.perBankRdBursts::8            434657                       # Per bank write bursts
system.mem_ctrls.perBankRdBursts::9            430305                       # Per bank write bursts
system.mem_ctrls.perBankRdBursts::10           432831                       # Per bank write bursts
system.mem_ctrls.perBankRdBursts::11           438832                       # Per bank write bursts
system.mem_ctrls.perBankRdBursts::12           442320                       # Per bank write bursts
system.mem_ctrls.perBankRdBursts::13           447532                       # Per bank write bursts
system.mem_ctrls.perBankRdBursts::14           447286                       # Per bank write bursts
system.mem_ctrls.perBankRdBursts::15           444557                       # Per bank write bursts
system.mem_ctrls.perBankWrBursts::0             76760                       # Per bank write bursts
system.mem_ctrls.perBankWrBursts::1             76457                       # Per bank write bursts
system.mem_ctrls.perBankWrBursts::2             76191                       # Per bank write bursts
system.mem_ctrls.perBankWrBursts::3             77171                       # Per bank write bursts
system.mem_ctrls.perBankWrBursts::4             73383                       # Per bank write bursts
system.mem_ctrls.perBankWrBursts::5             70916                       # Per bank write bursts
system.mem_ctrls.perBankWrBursts::6             73037                       # Per bank write bursts
system.mem_ctrls.perBankWrBursts::7             71277                       # Per bank write bursts
system.mem_ctrls.perBankWrBursts::8             72196                       # Per bank write bursts
system.mem_ctrls.perBankWrBursts::9             71061                       # Per bank write bursts
system.mem_ctrls.perBankWrBursts::10            71403                       # Per bank write bursts
system.mem_ctrls.perBankWrBursts::11            74670                       # Per bank write bursts
system.mem_ctrls.perBankWrBursts::12            76965                       # Per bank write bursts
system.mem_ctrls.perBankWrBursts::13            76895                       # Per bank write bursts
system.mem_ctrls.perBankWrBursts::14            76402                       # Per bank write bursts
system.mem_ctrls.perBankWrBursts::15            76645                       # Per bank write bursts
system.mem_ctrls.numRdRetry                         0                       # Number of times read queue was full causing retry
system.mem_ctrls.numWrRetry                         0                       # Number of times write queue was full causing retry
system.mem_ctrls.totGap                  1685224710500                       # Total gap between requests
system.mem_ctrls.readPktSize::0                     0                       # Read request sizes (log2)
system.mem_ctrls.readPktSize::1                     0                       # Read request sizes (log2)
system.mem_ctrls.readPktSize::2                     0                       # Read request sizes (log2)
system.mem_ctrls.readPktSize::3                     0                       # Read request sizes (log2)
system.mem_ctrls.readPktSize::4                     0                       # Read request sizes (log2)
system.mem_ctrls.readPktSize::5                     0                       # Read request sizes (log2)
system.mem_ctrls.readPktSize::6               6990261                       # Read request sizes (log2)
system.mem_ctrls.writePktSize::0                    0                       # Write request sizes (log2)
system.mem_ctrls.writePktSize::1                    0                       # Write request sizes (log2)
system.mem_ctrls.writePktSize::2                    0                       # Write request sizes (log2)
system.mem_ctrls.writePktSize::3                    0                       # Write request sizes (log2)
system.mem_ctrls.writePktSize::4                    0                       # Write request sizes (log2)
system.mem_ctrls.writePktSize::5                    0                       # Write request sizes (log2)
system.mem_ctrls.writePktSize::6              1191447                       # Write request sizes (log2)
system.mem_ctrls.rdQLenPdf::0                 6982916                       # What read queue length does an incoming req see
system.mem_ctrls.rdQLenPdf::1                       0                       # What read queue length does an incoming req see
system.mem_ctrls.rdQLenPdf::2                       0                       # What read queue length does an incoming req see
system.mem_ctrls.rdQLenPdf::3                       0                       # What read queue length does an incoming req see
system.mem_ctrls.rdQLenPdf::4                       0                       # What read queue length does an incoming req see
system.mem_ctrls.rdQLenPdf::5                       0                       # What read queue length does an incoming req see
system.mem_ctrls.rdQLenPdf::6                       0                       # What read queue length does an incoming req see
system.mem_ctrls.rdQLenPdf::7                       0                       # What read queue length does an incoming req see
system.mem_ctrls.rdQLenPdf::8                       0                       # What read queue length does an incoming req see
system.mem_ctrls.rdQLenPdf::9                       0                       # What read queue length does an incoming req see
system.mem_ctrls.rdQLenPdf::10                      0                       # What read queue length does an incoming req see
system.mem_ctrls.rdQLenPdf::11                      0                       # What read queue length does an incoming req see
system.mem_ctrls.rdQLenPdf::12                      0                       # What read queue length does an incoming req see
system.mem_ctrls.rdQLenPdf::13                      0                       # What read queue length does an incoming req see
system.mem_ctrls.rdQLenPdf::14                      0                       # What read queue length does an incoming req see
system.mem_ctrls.rdQLenPdf::15                      0                       # What read queue length does an incoming req see
system.mem_ctrls.rdQLenPdf::16                      0                       # What read queue length does an incoming req see
system.mem_ctrls.rdQLenPdf::17                      0                       # What read queue length does an incoming req see
system.mem_ctrls.rdQLenPdf::18                      0                       # What read queue length does an incoming req see
system.mem_ctrls.rdQLenPdf::19                      0                       # What read queue length does an incoming req see
system.mem_ctrls.rdQLenPdf::20                      0                       # What read queue length does an incoming req see
system.mem_ctrls.rdQLenPdf::21                      0                       # What read queue length does an incoming req see
system.mem_ctrls.rdQLenPdf::22                      0                       # What read queue length does an incoming req see
system.mem_ctrls.rdQLenPdf::23                      0                       # What read queue length does an incoming req see
system.mem_ctrls.rdQLenPdf::24                      0                       # What read queue length does an incoming req see
system.mem_ctrls.rdQLenPdf::25                      0                       # What read queue length does an incoming req see
system.mem_ctrls.rdQLenPdf::26                      0                       # What read queue length does an incoming req see
system.mem_ctrls.rdQLenPdf::27                      0                       # What read queue length does an incoming req see
system.mem_ctrls.rdQLenPdf::28                      0                       # What read queue length does an incoming req see
system.mem_ctrls.rdQLenPdf::29                      0                       # What read queue length does an incoming req see
system.mem_ctrls.rdQLenPdf::30                      0                       # What read queue length does an incoming req see
system.mem_ctrls.rdQLenPdf::31                      0                       # What read queue length does an incoming req see
system.mem_ctrls.wrQLenPdf::0                       1                       # What write queue length does an incoming req see
system.mem_ctrls.wrQLenPdf::1                       1                       # What write queue length does an incoming req see
system.mem_ctrls.wrQLenPdf::2                       1                       # What write queue length does an incoming req see
system.mem_ctrls.wrQLenPdf::3                       1                       # What write queue length does an incoming req see
system.mem_ctrls.wrQLenPdf::4                       1                       # What write queue length does an incoming req see
system.mem_ctrls.wrQLenPdf::5                       1                       # What write queue length does an incoming req see
system.mem_ctrls.wrQLenPdf::6                       1                       # What write queue length does an incoming req see
system.mem_ctrls.wrQLenPdf::7                       1                       # What write queue length does an incoming req see
system.mem_ctrls.wrQLenPdf::8                       1                       # What write queue length does an incoming req see
system.mem_ctrls.wrQLenPdf::9                       1                       # What write queue length does an incoming req see
system.mem_ctrls.wrQLenPdf::10                      1                       # What write queue length does an incoming req see
system.mem_ctrls.wrQLenPdf::11                      1                       # What write queue length does an incoming req see
system.mem_ctrls.wrQLenPdf::12                      1                       # What write queue length does an incoming req see
system.mem_ctrls.wrQLenPdf::13                      1                       # What write queue length does an incoming req see
system.mem_ctrls.wrQLenPdf::14                      1                       # What write queue length does an incoming req see
system.mem_ctrls.wrQLenPdf::15                  28087                       # What write queue length does an incoming req see
system.mem_ctrls.wrQLenPdf::16                  28776                       # What write queue length does an incoming req see
system.mem_ctrls.wrQLenPdf::17                  70521                       # What write queue length does an incoming req see
system.mem_ctrls.wrQLenPdf::18                  70957                       # What write queue length does an incoming req see
system.mem_ctrls.wrQLenPdf::19                  70887                       # What write queue length does an incoming req see
system.mem_ctrls.wrQLenPdf::20                  70845                       # What write queue length does an incoming req see
system.mem_ctrls.wrQLenPdf::21                  70839                       # What write queue length does an incoming req see
system.mem_ctrls.wrQLenPdf::22                  70890                       # What write queue length does an incoming req see
system.mem_ctrls.wrQLenPdf::23                  70900                       # What write queue length does an incoming req see
system.mem_ctrls.wrQLenPdf::24                  70855                       # What write queue length does an incoming req see
system.mem_ctrls.wrQLenPdf::25                  70984                       # What write queue length does an incoming req see
system.mem_ctrls.wrQLenPdf::26                  70901                       # What write queue length does an incoming req see
system.mem_ctrls.wrQLenPdf::27                  71419                       # What write queue length does an incoming req see
system.mem_ctrls.wrQLenPdf::28                  71199                       # What write queue length does an incoming req see
system.mem_ctrls.wrQLenPdf::29                  70845                       # What write queue length does an incoming req see
system.mem_ctrls.wrQLenPdf::30                  70855                       # What write queue length does an incoming req see
system.mem_ctrls.wrQLenPdf::31                  70827                       # What write queue length does an incoming req see
system.mem_ctrls.wrQLenPdf::32                  70827                       # What write queue length does an incoming req see
system.mem_ctrls.wrQLenPdf::33                     17                       # What write queue length does an incoming req see
system.mem_ctrls.wrQLenPdf::34                      1                       # What write queue length does an incoming req see
system.mem_ctrls.wrQLenPdf::35                      0                       # What write queue length does an incoming req see
system.mem_ctrls.wrQLenPdf::36                      0                       # What write queue length does an incoming req see
system.mem_ctrls.wrQLenPdf::37                      0                       # What write queue length does an incoming req see
system.mem_ctrls.wrQLenPdf::38                      0                       # What write queue length does an incoming req see
system.mem_ctrls.wrQLenPdf::39                      0                       # What write queue length does an incoming req see
system.mem_ctrls.wrQLenPdf::40                      0                       # What write queue length does an incoming req see
system.mem_ctrls.wrQLenPdf::41                      0                       # What write queue length does an incoming req see
system.mem_ctrls.wrQLenPdf::42                      0                       # What write queue length does an incoming req see
system.mem_ctrls.wrQLenPdf::43                      0                       # What write queue length does an incoming req see
system.mem_ctrls.wrQLenPdf::44                      0                       # What write queue length does an incoming req see
system.mem_ctrls.wrQLenPdf::45                      0                       # What write queue length does an incoming req see
system.mem_ctrls.wrQLenPdf::46                      0                       # What write queue length does an incoming req see
system.mem_ctrls.wrQLenPdf::47                      0                       # What write queue length does an incoming req see
system.mem_ctrls.wrQLenPdf::48                      0                       # What write queue length does an incoming req see
system.mem_ctrls.wrQLenPdf::49                      0                       # What write queue length does an incoming req see
system.mem_ctrls.wrQLenPdf::50                      0                       # What write queue length does an incoming req see
system.mem_ctrls.wrQLenPdf::51                      0                       # What write queue length does an incoming req see
system.mem_ctrls.wrQLenPdf::52                      0                       # What write queue length does an incoming req see
system.mem_ctrls.wrQLenPdf::53                      0                       # What write queue length does an incoming req see
system.mem_ctrls.wrQLenPdf::54                      0                       # What write queue length does an incoming req see
system.mem_ctrls.wrQLenPdf::55                      0                       # What write queue length does an incoming req see
system.mem_ctrls.wrQLenPdf::56                      0                       # What write queue length does an incoming req see
system.mem_ctrls.wrQLenPdf::57                      0                       # What write queue length does an incoming req see
system.mem_ctrls.wrQLenPdf::58                      0                       # What write queue length does an incoming req see
system.mem_ctrls.wrQLenPdf::59                      0                       # What write queue length does an incoming req see
system.mem_ctrls.wrQLenPdf::60                      0                       # What write queue length does an incoming req see
system.mem_ctrls.wrQLenPdf::61                      0                       # What write queue length does an incoming req see
system.mem_ctrls.wrQLenPdf::62                      0                       # What write queue length does an incoming req see
system.mem_ctrls.wrQLenPdf::63                      0                       # What write queue length does an incoming req see
system.mem_ctrls.bytesPerActivate::samples      5949137                       # Bytes accessed per row activation
system.mem_ctrls.bytesPerActivate::mean     87.938483                       # Bytes accessed per row activation
system.mem_ctrls.bytesPerActivate::gmean    72.573644                       # Bytes accessed per row activation
system.mem_ctrls.bytesPerActivate::stdev   116.290909                       # Bytes accessed per row activation
system.mem_ctrls.bytesPerActivate::0-127      5317609     89.38%     89.38% # Bytes accessed per row activation
system.mem_ctrls.bytesPerActivate::128-255       442821      7.44%     96.83% # Bytes accessed per row activation
system.mem_ctrls.bytesPerActivate::256-383        53141      0.89%     97.72% # Bytes accessed per row activation
system.mem_ctrls.bytesPerActivate::384-511        23841      0.40%     98.12% # Bytes accessed per row activation
system.mem_ctrls.bytesPerActivate::512-639        16719      0.28%     98.40% # Bytes accessed per row activation
system.mem_ctrls.bytesPerActivate::640-767        15424      0.26%     98.66% # Bytes accessed per row activation
system.mem_ctrls.bytesPerActivate::768-895        14884      0.25%     98.91% # Bytes accessed per row activation
system.mem_ctrls.bytesPerActivate::896-1023         7828      0.13%     99.04% # Bytes accessed per row activation
system.mem_ctrls.bytesPerActivate::1024-1151        56870      0.96%    100.00% # Bytes accessed per row activation
system.mem_ctrls.bytesPerActivate::total      5949137                       # Bytes accessed per row activation
system.mem_ctrls.rdPerTurnAround::samples        70827                       # Reads before turning the bus around for writes
system.mem_ctrls.rdPerTurnAround::mean      98.588970                       # Reads before turning the bus around for writes
system.mem_ctrls.rdPerTurnAround::gmean     46.901785                       # Reads before turning the bus around for writes
system.mem_ctrls.rdPerTurnAround::stdev    185.633595                       # Reads before turning the bus around for writes
system.mem_ctrls.rdPerTurnAround::0-511         67007     94.61%     94.61% # Reads before turning the bus around for writes
system.mem_ctrls.rdPerTurnAround::512-1023         3469      4.90%     99.50% # Reads before turning the bus around for writes
system.mem_ctrls.rdPerTurnAround::1024-1535          330      0.47%     99.97% # Reads before turning the bus around for writes
system.mem_ctrls.rdPerTurnAround::1536-2047           19      0.03%    100.00% # Reads before turning the bus around for writes
system.mem_ctrls.rdPerTurnAround::2048-2559            1      0.00%    100.00% # Reads before turning the bus around for writes
system.mem_ctrls.rdPerTurnAround::9216-9727            1      0.00%    100.00% # Reads before turning the bus around for writes
system.mem_ctrls.rdPerTurnAround::total         70827                       # Reads before turning the bus around for writes
system.mem_ctrls.wrPerTurnAround::samples        70827                       # Writes before turning the bus around for reads
system.mem_ctrls.wrPerTurnAround::mean      16.821678                       # Writes before turning the bus around for reads
system.mem_ctrls.wrPerTurnAround::gmean     16.792022                       # Writes before turning the bus around for reads
system.mem_ctrls.wrPerTurnAround::stdev      1.007734                       # Writes before turning the bus around for reads
system.mem_ctrls.wrPerTurnAround::16            42053     59.37%     59.37% # Writes before turning the bus around for reads
system.mem_ctrls.wrPerTurnAround::17              672      0.95%     60.32% # Writes before turning the bus around for reads
system.mem_ctrls.wrPerTurnAround::18            26808     37.85%     98.17% # Writes before turning the bus around for reads
system.mem_ctrls.wrPerTurnAround::19             1269      1.79%     99.96% # Writes before turning the bus around for reads
system.mem_ctrls.wrPerTurnAround::20               24      0.03%    100.00% # Writes before turning the bus around for reads
system.mem_ctrls.wrPerTurnAround::22                1      0.00%    100.00% # Writes before turning the bus around for reads
system.mem_ctrls.wrPerTurnAround::total         70827                       # Writes before turning the bus around for reads
system.mem_ctrls.totQLat                 156666803750                       # Total ticks spent queuing
system.mem_ctrls.totMemAccLat            287596478750                       # Total ticks spent from burst creation until serviced by the DRAM
system.mem_ctrls.totBusLat                34914580000                       # Total ticks spent in databus transfers
system.mem_ctrls.avgQLat                     22435.73                       # Average queueing delay per DRAM burst
system.mem_ctrls.avgBusLat                    5000.00                       # Average bus latency per DRAM burst
system.mem_ctrls.avgMemAccLat                41185.73                       # Average memory access latency per DRAM burst
system.mem_ctrls.avgRdBW                       265.19                       # Average DRAM read bandwidth in MiByte/s
system.mem_ctrls.avgWrBW                        45.25                       # Average achieved write bandwidth in MiByte/s
system.mem_ctrls.avgRdBWSys                    265.47                       # Average system read bandwidth in MiByte/s
system.mem_ctrls.avgWrBWSys                     45.25                       # Average system write bandwidth in MiByte/s
system.mem_ctrls.peakBW                      12800.00                       # Theoretical peak bandwidth in MiByte/s
system.mem_ctrls.busUtil                         2.43                       # Data bus utilization in percentage
system.mem_ctrls.busUtilRead                     2.07                       # Data bus utilization in percentage for reads
system.mem_ctrls.busUtilWrite                    0.35                       # Data bus utilization in percentage for writes
system.mem_ctrls.avgRdQLen                       1.00                       # Average read queue length when enqueuing
system.mem_ctrls.avgWrQLen                      24.78                       # Average write queue length when enqueuing
system.mem_ctrls.readRowHits                  1526613                       # Number of row buffer hits during reads
system.mem_ctrls.writeRowHits                  698595                       # Number of row buffer hits during writes
system.mem_ctrls.readRowHitRate                 21.86                       # Row buffer hit rate for reads
system.mem_ctrls.writeRowHitRate                58.63                       # Row buffer hit rate for writes
system.mem_ctrls.avgGap                     205974.68                       # Average gap between requests
system.mem_ctrls.pageHitRate                    27.22                       # Row buffer hit rate, read and write combined
system.mem_ctrls_0.actEnergy              22294243440                       # Energy for activate commands per rank (pJ)
system.mem_ctrls_0.preEnergy              12164517750                       # Energy for precharge commands per rank (pJ)
system.mem_ctrls_0.readEnergy             27023848800                       # Energy for read commands per rank (pJ)
system.mem_ctrls_0.writeEnergy             3856844160                       # Energy for write commands per rank (pJ)
system.mem_ctrls_0.refreshEnergy         110071709280                       # Energy for refresh commands per rank (pJ)
system.mem_ctrls_0.actBackEnergy         874702277145                       # Energy for active background per rank (pJ)
system.mem_ctrls_0.preBackEnergy         243861675000                       # Energy for precharge background per rank (pJ)
system.mem_ctrls_0.totalEnergy           1293975115575                       # Total energy per rank (pJ)
system.mem_ctrls_0.averagePower            767.828106                       # Core power per rank (mW)
system.mem_ctrls_0.memoryStateTime::IDLE 400530842250                       # Time in different power states
system.mem_ctrls_0.memoryStateTime::REF   56273880000                       # Time in different power states
system.mem_ctrls_0.memoryStateTime::PRE_PDN            0                       # Time in different power states
system.mem_ctrls_0.memoryStateTime::ACT  1228435915250                       # Time in different power states
system.mem_ctrls_0.memoryStateTime::ACT_PDN            0                       # Time in different power states
system.mem_ctrls_1.actEnergy              22681232280                       # Energy for activate commands per rank (pJ)
system.mem_ctrls_1.preEnergy              12375672375                       # Energy for precharge commands per rank (pJ)
system.mem_ctrls_1.readEnergy             27442896000                       # Energy for read commands per rank (pJ)
system.mem_ctrls_1.writeEnergy             3863615760                       # Energy for write commands per rank (pJ)
system.mem_ctrls_1.refreshEnergy         110071709280                       # Energy for refresh commands per rank (pJ)
system.mem_ctrls_1.actBackEnergy         873311649570                       # Energy for active background per rank (pJ)
system.mem_ctrls_1.preBackEnergy         245081523750                       # Energy for precharge background per rank (pJ)
system.mem_ctrls_1.totalEnergy           1294828299015                       # Total energy per rank (pJ)
system.mem_ctrls_1.averagePower            768.334374                       # Core power per rank (mW)
system.mem_ctrls_1.memoryStateTime::IDLE 402327936250                       # Time in different power states
system.mem_ctrls_1.memoryStateTime::REF   56273880000                       # Time in different power states
system.mem_ctrls_1.memoryStateTime::PRE_PDN            0                       # Time in different power states
system.mem_ctrls_1.memoryStateTime::ACT  1226638821250                       # Time in different power states
system.mem_ctrls_1.memoryStateTime::ACT_PDN            0                       # Time in different power states
system.cpu_voltage_domain.voltage                   1                       # Voltage in Volts
system.cpu_clk_domain.clock                       500                       # Clock period in ticks
system.cpu.apic_clk_domain.clock                 8000                       # Clock period in ticks
system.cpu.workload.num_syscalls                  168                       # Number of system calls
system.cpu.numCycles                       3370483445                       # number of cpu cycles simulated
system.cpu.numWorkItemsStarted                      0                       # number of work items this cpu started
system.cpu.numWorkItemsCompleted                    0                       # number of work items this cpu completed
system.cpu.committedInsts                   500000000                       # Number of instructions committed
system.cpu.committedOps                     876313791                       # Number of ops (including micro ops) committed
system.cpu.num_int_alu_accesses             872966650                       # Number of integer alu accesses
system.cpu.num_fp_alu_accesses                2882295                       # Number of float alu accesses
system.cpu.num_func_calls                    11025254                       # number of times a function call or return occured
system.cpu.num_conditional_control_insts     75981001                       # number of instructions that are conditional controls
system.cpu.num_int_insts                    872966650                       # number of integer instructions
system.cpu.num_fp_insts                       2882295                       # number of float instructions
system.cpu.num_int_register_reads          1835046799                       # number of times the integer registers were read
system.cpu.num_int_register_writes          703076403                       # number of times the integer registers were written
system.cpu.num_fp_register_reads              4386181                       # number of times the floating registers were read
system.cpu.num_fp_register_writes             2464451                       # number of times the floating registers were written
system.cpu.num_cc_register_reads            441654653                       # number of times the CC registers were read
system.cpu.num_cc_register_writes           253505530                       # number of times the CC registers were written
system.cpu.num_mem_refs                     293763540                       # number of memory refs
system.cpu.num_load_insts                   221284996                       # Number of load instructions
system.cpu.num_store_insts                   72478544                       # Number of store instructions
system.cpu.num_idle_cycles                          0                       # Number of idle cycles
system.cpu.num_busy_cycles                 3370483445                       # Number of busy cycles
system.cpu.not_idle_fraction                        1                       # Percentage of non-idle cycles
system.cpu.idle_fraction                            0                       # Percentage of idle cycles
system.cpu.Branches                          97900991                       # Number of branches fetched
system.cpu.op_class::No_OpClass                939429      0.11%      0.11% # Class of executed instruction
system.cpu.op_class::IntAlu                 578420275     66.01%     66.11% # Class of executed instruction
system.cpu.op_class::IntMult                   907073      0.10%     66.22% # Class of executed instruction
system.cpu.op_class::IntDiv                        42      0.00%     66.22% # Class of executed instruction
system.cpu.op_class::FloatAdd                 2283432      0.26%     66.48% # Class of executed instruction
system.cpu.op_class::FloatCmp                       0      0.00%     66.48% # Class of executed instruction
system.cpu.op_class::FloatCvt                       0      0.00%     66.48% # Class of executed instruction
system.cpu.op_class::FloatMult                      0      0.00%     66.48% # Class of executed instruction
system.cpu.op_class::FloatDiv                       0      0.00%     66.48% # Class of executed instruction
system.cpu.op_class::FloatSqrt                      0      0.00%     66.48% # Class of executed instruction
system.cpu.op_class::SimdAdd                        0      0.00%     66.48% # Class of executed instruction
system.cpu.op_class::SimdAddAcc                     0      0.00%     66.48% # Class of executed instruction
system.cpu.op_class::SimdAlu                        0      0.00%     66.48% # Class of executed instruction
system.cpu.op_class::SimdCmp                        0      0.00%     66.48% # Class of executed instruction
system.cpu.op_class::SimdCvt                        0      0.00%     66.48% # Class of executed instruction
system.cpu.op_class::SimdMisc                       0      0.00%     66.48% # Class of executed instruction
system.cpu.op_class::SimdMult                       0      0.00%     66.48% # Class of executed instruction
system.cpu.op_class::SimdMultAcc                    0      0.00%     66.48% # Class of executed instruction
system.cpu.op_class::SimdShift                      0      0.00%     66.48% # Class of executed instruction
system.cpu.op_class::SimdShiftAcc                   0      0.00%     66.48% # Class of executed instruction
system.cpu.op_class::SimdSqrt                       0      0.00%     66.48% # Class of executed instruction
system.cpu.op_class::SimdFloatAdd                   0      0.00%     66.48% # Class of executed instruction
system.cpu.op_class::SimdFloatAlu                   0      0.00%     66.48% # Class of executed instruction
system.cpu.op_class::SimdFloatCmp                   0      0.00%     66.48% # Class of executed instruction
system.cpu.op_class::SimdFloatCvt                   0      0.00%     66.48% # Class of executed instruction
system.cpu.op_class::SimdFloatDiv                   0      0.00%     66.48% # Class of executed instruction
system.cpu.op_class::SimdFloatMisc                  0      0.00%     66.48% # Class of executed instruction
system.cpu.op_class::SimdFloatMult                  0      0.00%     66.48% # Class of executed instruction
system.cpu.op_class::SimdFloatMultAcc               0      0.00%     66.48% # Class of executed instruction
system.cpu.op_class::SimdFloatSqrt                  0      0.00%     66.48% # Class of executed instruction
system.cpu.op_class::MemRead                221284996     25.25%     91.73% # Class of executed instruction
system.cpu.op_class::MemWrite                72478544      8.27%    100.00% # Class of executed instruction
system.cpu.op_class::IprAccess                      0      0.00%    100.00% # Class of executed instruction
system.cpu.op_class::InstPrefetch                   0      0.00%    100.00% # Class of executed instruction
system.cpu.op_class::total                  876313791                       # Class of executed instruction
system.cpu.dcache.tags.replacements          12496751                       # number of replacements
system.cpu.dcache.tags.tagsinuse          1023.840885                       # Cycle average of tags in use
system.cpu.dcache.tags.total_refs           281285958                       # Total number of references to valid blocks.
system.cpu.dcache.tags.sampled_refs          12497775                       # Sample count of references to valid blocks.
system.cpu.dcache.tags.avg_refs             22.506883                       # Average number of references to valid blocks.
system.cpu.dcache.tags.warmup_cycle         669625500                       # Cycle when the warmup percentage was hit.
system.cpu.dcache.tags.occ_blocks::cpu.data  1023.840885                       # Average occupied blocks per requestor
system.cpu.dcache.tags.occ_percent::cpu.data     0.999845                       # Average percentage of cache occupancy
system.cpu.dcache.tags.occ_percent::total     0.999845                       # Average percentage of cache occupancy
system.cpu.dcache.tags.occ_task_id_blocks::1024         1024                       # Occupied blocks per task id
system.cpu.dcache.tags.age_task_id_blocks_1024::0            4                       # Occupied blocks per task id
system.cpu.dcache.tags.age_task_id_blocks_1024::1          646                       # Occupied blocks per task id
system.cpu.dcache.tags.age_task_id_blocks_1024::2          361                       # Occupied blocks per task id
system.cpu.dcache.tags.age_task_id_blocks_1024::3           11                       # Occupied blocks per task id
system.cpu.dcache.tags.age_task_id_blocks_1024::4            2                       # Occupied blocks per task id
system.cpu.dcache.tags.occ_task_id_percent::1024            1                       # Percentage of cache occupancy per task id
system.cpu.dcache.tags.tag_accesses        1187632707                       # Number of tag accesses
system.cpu.dcache.tags.data_accesses       1187632707                       # Number of data accesses
system.cpu.dcache.ReadReq_hits::cpu.data    209215641                       # number of ReadReq hits
system.cpu.dcache.ReadReq_hits::total       209215641                       # number of ReadReq hits
system.cpu.dcache.WriteReq_hits::cpu.data     72070317                       # number of WriteReq hits
system.cpu.dcache.WriteReq_hits::total       72070317                       # number of WriteReq hits
system.cpu.dcache.demand_hits::cpu.data     281285958                       # number of demand (read+write) hits
system.cpu.dcache.demand_hits::total        281285958                       # number of demand (read+write) hits
system.cpu.dcache.overall_hits::cpu.data    281285958                       # number of overall hits
system.cpu.dcache.overall_hits::total       281285958                       # number of overall hits
system.cpu.dcache.ReadReq_misses::cpu.data     12083484                       # number of ReadReq misses
system.cpu.dcache.ReadReq_misses::total      12083484                       # number of ReadReq misses
system.cpu.dcache.WriteReq_misses::cpu.data       414291                       # number of WriteReq misses
system.cpu.dcache.WriteReq_misses::total       414291                       # number of WriteReq misses
system.cpu.dcache.demand_misses::cpu.data     12497775                       # number of demand (read+write) misses
system.cpu.dcache.demand_misses::total       12497775                       # number of demand (read+write) misses
system.cpu.dcache.overall_misses::cpu.data     12497775                       # number of overall misses
system.cpu.dcache.overall_misses::total      12497775                       # number of overall misses
system.cpu.dcache.ReadReq_miss_latency::cpu.data 705867804000                       # number of ReadReq miss cycles
system.cpu.dcache.ReadReq_miss_latency::total 705867804000                       # number of ReadReq miss cycles
system.cpu.dcache.WriteReq_miss_latency::cpu.data  20726736000                       # number of WriteReq miss cycles
system.cpu.dcache.WriteReq_miss_latency::total  20726736000                       # number of WriteReq miss cycles
system.cpu.dcache.demand_miss_latency::cpu.data 726594540000                       # number of demand (read+write) miss cycles
system.cpu.dcache.demand_miss_latency::total 726594540000                       # number of demand (read+write) miss cycles
system.cpu.dcache.overall_miss_latency::cpu.data 726594540000                       # number of overall miss cycles
system.cpu.dcache.overall_miss_latency::total 726594540000                       # number of overall miss cycles
system.cpu.dcache.ReadReq_accesses::cpu.data    221299125                       # number of ReadReq accesses(hits+misses)
system.cpu.dcache.ReadReq_accesses::total    221299125                       # number of ReadReq accesses(hits+misses)
system.cpu.dcache.WriteReq_accesses::cpu.data     72484608                       # number of WriteReq accesses(hits+misses)
system.cpu.dcache.WriteReq_accesses::total     72484608                       # number of WriteReq accesses(hits+misses)
system.cpu.dcache.demand_accesses::cpu.data    293783733                       # number of demand (read+write) accesses
system.cpu.dcache.demand_accesses::total    293783733                       # number of demand (read+write) accesses
system.cpu.dcache.overall_accesses::cpu.data    293783733                       # number of overall (read+write) accesses
system.cpu.dcache.overall_accesses::total    293783733                       # number of overall (read+write) accesses
system.cpu.dcache.ReadReq_miss_rate::cpu.data     0.054602                       # miss rate for ReadReq accesses
system.cpu.dcache.ReadReq_miss_rate::total     0.054602                       # miss rate for ReadReq accesses
system.cpu.dcache.WriteReq_miss_rate::cpu.data     0.005716                       # miss rate for WriteReq accesses
system.cpu.dcache.WriteReq_miss_rate::total     0.005716                       # miss rate for WriteReq accesses
system.cpu.dcache.demand_miss_rate::cpu.data     0.042541                       # miss rate for demand accesses
system.cpu.dcache.demand_miss_rate::total     0.042541                       # miss rate for demand accesses
system.cpu.dcache.overall_miss_rate::cpu.data     0.042541                       # miss rate for overall accesses
system.cpu.dcache.overall_miss_rate::total     0.042541                       # miss rate for overall accesses
system.cpu.dcache.ReadReq_avg_miss_latency::cpu.data 58415.917462                       # average ReadReq miss latency
system.cpu.dcache.ReadReq_avg_miss_latency::total 58415.917462                       # average ReadReq miss latency
system.cpu.dcache.WriteReq_avg_miss_latency::cpu.data 50029.414107                       # average WriteReq miss latency
system.cpu.dcache.WriteReq_avg_miss_latency::total 50029.414107                       # average WriteReq miss latency
system.cpu.dcache.demand_avg_miss_latency::cpu.data 58137.911748                       # average overall miss latency
system.cpu.dcache.demand_avg_miss_latency::total 58137.911748                       # average overall miss latency
system.cpu.dcache.overall_avg_miss_latency::cpu.data 58137.911748                       # average overall miss latency
system.cpu.dcache.overall_avg_miss_latency::total 58137.911748                       # average overall miss latency
system.cpu.dcache.blocked_cycles::no_mshrs            0                       # number of cycles access was blocked
system.cpu.dcache.blocked_cycles::no_targets            0                       # number of cycles access was blocked
system.cpu.dcache.blocked::no_mshrs                 0                       # number of cycles access was blocked
system.cpu.dcache.blocked::no_targets               0                       # number of cycles access was blocked
system.cpu.dcache.avg_blocked_cycles::no_mshrs          nan                       # average number of cycles each access was blocked
system.cpu.dcache.avg_blocked_cycles::no_targets          nan                       # average number of cycles each access was blocked
system.cpu.dcache.fast_writes                       0                       # number of fast writes performed
system.cpu.dcache.cache_copies                      0                       # number of cache copies performed
system.cpu.dcache.writebacks::writebacks      2442643                       # number of writebacks
system.cpu.dcache.writebacks::total           2442643                       # number of writebacks
system.cpu.dcache.ReadReq_mshr_misses::cpu.data     12083484                       # number of ReadReq MSHR misses
system.cpu.dcache.ReadReq_mshr_misses::total     12083484                       # number of ReadReq MSHR misses
system.cpu.dcache.WriteReq_mshr_misses::cpu.data       414291                       # number of WriteReq MSHR misses
system.cpu.dcache.WriteReq_mshr_misses::total       414291                       # number of WriteReq MSHR misses
system.cpu.dcache.demand_mshr_misses::cpu.data     12497775                       # number of demand (read+write) MSHR misses
system.cpu.dcache.demand_mshr_misses::total     12497775                       # number of demand (read+write) MSHR misses
system.cpu.dcache.overall_mshr_misses::cpu.data     12497775                       # number of overall MSHR misses
system.cpu.dcache.overall_mshr_misses::total     12497775                       # number of overall MSHR misses
system.cpu.dcache.ReadReq_mshr_miss_latency::cpu.data 693784320000                       # number of ReadReq MSHR miss cycles
system.cpu.dcache.ReadReq_mshr_miss_latency::total 693784320000                       # number of ReadReq MSHR miss cycles
system.cpu.dcache.WriteReq_mshr_miss_latency::cpu.data  20312445000                       # number of WriteReq MSHR miss cycles
system.cpu.dcache.WriteReq_mshr_miss_latency::total  20312445000                       # number of WriteReq MSHR miss cycles
system.cpu.dcache.demand_mshr_miss_latency::cpu.data 714096765000                       # number of demand (read+write) MSHR miss cycles
system.cpu.dcache.demand_mshr_miss_latency::total 714096765000                       # number of demand (read+write) MSHR miss cycles
system.cpu.dcache.overall_mshr_miss_latency::cpu.data 714096765000                       # number of overall MSHR miss cycles
system.cpu.dcache.overall_mshr_miss_latency::total 714096765000                       # number of overall MSHR miss cycles
system.cpu.dcache.ReadReq_mshr_miss_rate::cpu.data     0.054602                       # mshr miss rate for ReadReq accesses
system.cpu.dcache.ReadReq_mshr_miss_rate::total     0.054602                       # mshr miss rate for ReadReq accesses
system.cpu.dcache.WriteReq_mshr_miss_rate::cpu.data     0.005716                       # mshr miss rate for WriteReq accesses
system.cpu.dcache.WriteReq_mshr_miss_rate::total     0.005716                       # mshr miss rate for WriteReq accesses
system.cpu.dcache.demand_mshr_miss_rate::cpu.data     0.042541                       # mshr miss rate for demand accesses
system.cpu.dcache.demand_mshr_miss_rate::total     0.042541                       # mshr miss rate for demand accesses
system.cpu.dcache.overall_mshr_miss_rate::cpu.data     0.042541                       # mshr miss rate for overall accesses
system.cpu.dcache.overall_mshr_miss_rate::total     0.042541                       # mshr miss rate for overall accesses
system.cpu.dcache.ReadReq_avg_mshr_miss_latency::cpu.data 57415.917462                       # average ReadReq mshr miss latency
system.cpu.dcache.ReadReq_avg_mshr_miss_latency::total 57415.917462                       # average ReadReq mshr miss latency
system.cpu.dcache.WriteReq_avg_mshr_miss_latency::cpu.data 49029.414107                       # average WriteReq mshr miss latency
system.cpu.dcache.WriteReq_avg_mshr_miss_latency::total 49029.414107                       # average WriteReq mshr miss latency
system.cpu.dcache.demand_avg_mshr_miss_latency::cpu.data 57137.911748                       # average overall mshr miss latency
system.cpu.dcache.demand_avg_mshr_miss_latency::total 57137.911748                       # average overall mshr miss latency
system.cpu.dcache.overall_avg_mshr_miss_latency::cpu.data 57137.911748                       # average overall mshr miss latency
system.cpu.dcache.overall_avg_mshr_miss_latency::total 57137.911748                       # average overall mshr miss latency
system.cpu.dcache.no_allocate_misses                0                       # Number of misses that were no-allocate
system.cpu.dtb_walker_cache.tags.replacements            0                       # number of replacements
system.cpu.dtb_walker_cache.tags.tagsinuse            0                       # Cycle average of tags in use
system.cpu.dtb_walker_cache.tags.total_refs            0                       # Total number of references to valid blocks.
system.cpu.dtb_walker_cache.tags.sampled_refs            0                       # Sample count of references to valid blocks.
system.cpu.dtb_walker_cache.tags.avg_refs          nan                       # Average number of references to valid blocks.
system.cpu.dtb_walker_cache.tags.warmup_cycle            0                       # Cycle when the warmup percentage was hit.
system.cpu.dtb_walker_cache.tags.tag_accesses            0                       # Number of tag accesses
system.cpu.dtb_walker_cache.tags.data_accesses            0                       # Number of data accesses
system.cpu.dtb_walker_cache.blocked_cycles::no_mshrs            0                       # number of cycles access was blocked
system.cpu.dtb_walker_cache.blocked_cycles::no_targets            0                       # number of cycles access was blocked
system.cpu.dtb_walker_cache.blocked::no_mshrs            0                       # number of cycles access was blocked
system.cpu.dtb_walker_cache.blocked::no_targets            0                       # number of cycles access was blocked
system.cpu.dtb_walker_cache.avg_blocked_cycles::no_mshrs          nan                       # average number of cycles each access was blocked
system.cpu.dtb_walker_cache.avg_blocked_cycles::no_targets          nan                       # average number of cycles each access was blocked
system.cpu.dtb_walker_cache.fast_writes             0                       # number of fast writes performed
system.cpu.dtb_walker_cache.cache_copies            0                       # number of cache copies performed
system.cpu.dtb_walker_cache.no_allocate_misses            0                       # Number of misses that were no-allocate
system.cpu.icache.tags.replacements                 4                       # number of replacements
system.cpu.icache.tags.tagsinuse           638.949179                       # Cycle average of tags in use
system.cpu.icache.tags.total_refs           677317254                       # Total number of references to valid blocks.
system.cpu.icache.tags.sampled_refs               680                       # Sample count of references to valid blocks.
system.cpu.icache.tags.avg_refs          996054.785294                       # Average number of references to valid blocks.
system.cpu.icache.tags.warmup_cycle                 0                       # Cycle when the warmup percentage was hit.
system.cpu.icache.tags.occ_blocks::cpu.inst   638.949179                       # Average occupied blocks per requestor
system.cpu.icache.tags.occ_percent::cpu.inst     0.311987                       # Average percentage of cache occupancy
system.cpu.icache.tags.occ_percent::total     0.311987                       # Average percentage of cache occupancy
system.cpu.icache.tags.occ_task_id_blocks::1024          676                       # Occupied blocks per task id
system.cpu.icache.tags.age_task_id_blocks_1024::4          676                       # Occupied blocks per task id
system.cpu.icache.tags.occ_task_id_percent::1024     0.330078                       # Percentage of cache occupancy per task id
system.cpu.icache.tags.tag_accesses        2709272416                       # Number of tag accesses
system.cpu.icache.tags.data_accesses       2709272416                       # Number of data accesses
system.cpu.icache.ReadReq_hits::cpu.inst    677317254                       # number of ReadReq hits
system.cpu.icache.ReadReq_hits::total       677317254                       # number of ReadReq hits
system.cpu.icache.demand_hits::cpu.inst     677317254                       # number of demand (read+write) hits
system.cpu.icache.demand_hits::total        677317254                       # number of demand (read+write) hits
system.cpu.icache.overall_hits::cpu.inst    677317254                       # number of overall hits
system.cpu.icache.overall_hits::total       677317254                       # number of overall hits
system.cpu.icache.ReadReq_misses::cpu.inst          680                       # number of ReadReq misses
system.cpu.icache.ReadReq_misses::total           680                       # number of ReadReq misses
system.cpu.icache.demand_misses::cpu.inst          680                       # number of demand (read+write) misses
system.cpu.icache.demand_misses::total            680                       # number of demand (read+write) misses
system.cpu.icache.overall_misses::cpu.inst          680                       # number of overall misses
system.cpu.icache.overall_misses::total           680                       # number of overall misses
system.cpu.icache.ReadReq_miss_latency::cpu.inst     54081000                       # number of ReadReq miss cycles
system.cpu.icache.ReadReq_miss_latency::total     54081000                       # number of ReadReq miss cycles
system.cpu.icache.demand_miss_latency::cpu.inst     54081000                       # number of demand (read+write) miss cycles
system.cpu.icache.demand_miss_latency::total     54081000                       # number of demand (read+write) miss cycles
system.cpu.icache.overall_miss_latency::cpu.inst     54081000                       # number of overall miss cycles
system.cpu.icache.overall_miss_latency::total     54081000                       # number of overall miss cycles
system.cpu.icache.ReadReq_accesses::cpu.inst    677317934                       # number of ReadReq accesses(hits+misses)
system.cpu.icache.ReadReq_accesses::total    677317934                       # number of ReadReq accesses(hits+misses)
system.cpu.icache.demand_accesses::cpu.inst    677317934                       # number of demand (read+write) accesses
system.cpu.icache.demand_accesses::total    677317934                       # number of demand (read+write) accesses
system.cpu.icache.overall_accesses::cpu.inst    677317934                       # number of overall (read+write) accesses
system.cpu.icache.overall_accesses::total    677317934                       # number of overall (read+write) accesses
system.cpu.icache.ReadReq_miss_rate::cpu.inst     0.000001                       # miss rate for ReadReq accesses
system.cpu.icache.ReadReq_miss_rate::total     0.000001                       # miss rate for ReadReq accesses
system.cpu.icache.demand_miss_rate::cpu.inst     0.000001                       # miss rate for demand accesses
system.cpu.icache.demand_miss_rate::total     0.000001                       # miss rate for demand accesses
system.cpu.icache.overall_miss_rate::cpu.inst     0.000001                       # miss rate for overall accesses
system.cpu.icache.overall_miss_rate::total     0.000001                       # miss rate for overall accesses
system.cpu.icache.ReadReq_avg_miss_latency::cpu.inst 79530.882353                       # average ReadReq miss latency
system.cpu.icache.ReadReq_avg_miss_latency::total 79530.882353                       # average ReadReq miss latency
system.cpu.icache.demand_avg_miss_latency::cpu.inst 79530.882353                       # average overall miss latency
system.cpu.icache.demand_avg_miss_latency::total 79530.882353                       # average overall miss latency
system.cpu.icache.overall_avg_miss_latency::cpu.inst 79530.882353                       # average overall miss latency
system.cpu.icache.overall_avg_miss_latency::total 79530.882353                       # average overall miss latency
system.cpu.icache.blocked_cycles::no_mshrs            0                       # number of cycles access was blocked
system.cpu.icache.blocked_cycles::no_targets            0                       # number of cycles access was blocked
system.cpu.icache.blocked::no_mshrs                 0                       # number of cycles access was blocked
system.cpu.icache.blocked::no_targets               0                       # number of cycles access was blocked
system.cpu.icache.avg_blocked_cycles::no_mshrs          nan                       # average number of cycles each access was blocked
system.cpu.icache.avg_blocked_cycles::no_targets          nan                       # average number of cycles each access was blocked
system.cpu.icache.fast_writes                       0                       # number of fast writes performed
system.cpu.icache.cache_copies                      0                       # number of cache copies performed
system.cpu.icache.writebacks::writebacks            4                       # number of writebacks
system.cpu.icache.writebacks::total                 4                       # number of writebacks
system.cpu.icache.ReadReq_mshr_misses::cpu.inst          680                       # number of ReadReq MSHR misses
system.cpu.icache.ReadReq_mshr_misses::total          680                       # number of ReadReq MSHR misses
system.cpu.icache.demand_mshr_misses::cpu.inst          680                       # number of demand (read+write) MSHR misses
system.cpu.icache.demand_mshr_misses::total          680                       # number of demand (read+write) MSHR misses
system.cpu.icache.overall_mshr_misses::cpu.inst          680                       # number of overall MSHR misses
system.cpu.icache.overall_mshr_misses::total          680                       # number of overall MSHR misses
system.cpu.icache.ReadReq_mshr_miss_latency::cpu.inst     53401000                       # number of ReadReq MSHR miss cycles
system.cpu.icache.ReadReq_mshr_miss_latency::total     53401000                       # number of ReadReq MSHR miss cycles
system.cpu.icache.demand_mshr_miss_latency::cpu.inst     53401000                       # number of demand (read+write) MSHR miss cycles
system.cpu.icache.demand_mshr_miss_latency::total     53401000                       # number of demand (read+write) MSHR miss cycles
system.cpu.icache.overall_mshr_miss_latency::cpu.inst     53401000                       # number of overall MSHR miss cycles
system.cpu.icache.overall_mshr_miss_latency::total     53401000                       # number of overall MSHR miss cycles
system.cpu.icache.ReadReq_mshr_miss_rate::cpu.inst     0.000001                       # mshr miss rate for ReadReq accesses
system.cpu.icache.ReadReq_mshr_miss_rate::total     0.000001                       # mshr miss rate for ReadReq accesses
system.cpu.icache.demand_mshr_miss_rate::cpu.inst     0.000001                       # mshr miss rate for demand accesses
system.cpu.icache.demand_mshr_miss_rate::total     0.000001                       # mshr miss rate for demand accesses
system.cpu.icache.overall_mshr_miss_rate::cpu.inst     0.000001                       # mshr miss rate for overall accesses
system.cpu.icache.overall_mshr_miss_rate::total     0.000001                       # mshr miss rate for overall accesses
system.cpu.icache.ReadReq_avg_mshr_miss_latency::cpu.inst 78530.882353                       # average ReadReq mshr miss latency
system.cpu.icache.ReadReq_avg_mshr_miss_latency::total 78530.882353                       # average ReadReq mshr miss latency
system.cpu.icache.demand_avg_mshr_miss_latency::cpu.inst 78530.882353                       # average overall mshr miss latency
system.cpu.icache.demand_avg_mshr_miss_latency::total 78530.882353                       # average overall mshr miss latency
system.cpu.icache.overall_avg_mshr_miss_latency::cpu.inst 78530.882353                       # average overall mshr miss latency
system.cpu.icache.overall_avg_mshr_miss_latency::total 78530.882353                       # average overall mshr miss latency
system.cpu.icache.no_allocate_misses                0                       # Number of misses that were no-allocate
system.cpu.itb_walker_cache.tags.replacements            0                       # number of replacements
system.cpu.itb_walker_cache.tags.tagsinuse            0                       # Cycle average of tags in use
system.cpu.itb_walker_cache.tags.total_refs            0                       # Total number of references to valid blocks.
system.cpu.itb_walker_cache.tags.sampled_refs            0                       # Sample count of references to valid blocks.
system.cpu.itb_walker_cache.tags.avg_refs          nan                       # Average number of references to valid blocks.
system.cpu.itb_walker_cache.tags.warmup_cycle            0                       # Cycle when the warmup percentage was hit.
system.cpu.itb_walker_cache.tags.tag_accesses            0                       # Number of tag accesses
system.cpu.itb_walker_cache.tags.data_accesses            0                       # Number of data accesses
system.cpu.itb_walker_cache.blocked_cycles::no_mshrs            0                       # number of cycles access was blocked
system.cpu.itb_walker_cache.blocked_cycles::no_targets            0                       # number of cycles access was blocked
system.cpu.itb_walker_cache.blocked::no_mshrs            0                       # number of cycles access was blocked
system.cpu.itb_walker_cache.blocked::no_targets            0                       # number of cycles access was blocked
system.cpu.itb_walker_cache.avg_blocked_cycles::no_mshrs          nan                       # average number of cycles each access was blocked
system.cpu.itb_walker_cache.avg_blocked_cycles::no_targets          nan                       # average number of cycles each access was blocked
system.cpu.itb_walker_cache.fast_writes             0                       # number of fast writes performed
system.cpu.itb_walker_cache.cache_copies            0                       # number of cache copies performed
system.cpu.itb_walker_cache.no_allocate_misses            0                       # Number of misses that were no-allocate
system.l2.tags.replacements                   6986142                       # number of replacements
system.l2.tags.tagsinuse                  8179.503447                       # Cycle average of tags in use
system.l2.tags.total_refs                    17586177                       # Total number of references to valid blocks.
system.l2.tags.sampled_refs                   6994328                       # Sample count of references to valid blocks.
system.l2.tags.avg_refs                      2.514348                       # Average number of references to valid blocks.
system.l2.tags.warmup_cycle                4699045000                       # Cycle when the warmup percentage was hit.
system.l2.tags.occ_blocks::writebacks     1339.417718                       # Average occupied blocks per requestor
system.l2.tags.occ_blocks::cpu.inst          1.633980                       # Average occupied blocks per requestor
system.l2.tags.occ_blocks::cpu.data       6838.451749                       # Average occupied blocks per requestor
system.l2.tags.occ_percent::writebacks       0.163503                       # Average percentage of cache occupancy
system.l2.tags.occ_percent::cpu.inst         0.000199                       # Average percentage of cache occupancy
system.l2.tags.occ_percent::cpu.data         0.834772                       # Average percentage of cache occupancy
system.l2.tags.occ_percent::total            0.998475                       # Average percentage of cache occupancy
system.l2.tags.occ_task_id_blocks::1024          8186                       # Occupied blocks per task id
system.l2.tags.age_task_id_blocks_1024::1          423                       # Occupied blocks per task id
system.l2.tags.age_task_id_blocks_1024::2         3969                       # Occupied blocks per task id
system.l2.tags.age_task_id_blocks_1024::3         3602                       # Occupied blocks per task id
system.l2.tags.age_task_id_blocks_1024::4          192                       # Occupied blocks per task id
system.l2.tags.occ_task_id_percent::1024     0.999268                       # Percentage of cache occupancy per task id
system.l2.tags.tag_accesses              102387784683                       # Number of tag accesses
system.l2.tags.data_accesses             102387784683                       # Number of data accesses
system.l2.WritebackDirty_hits::writebacks      2442643                       # number of WritebackDirty hits
system.l2.WritebackDirty_hits::total          2442643                       # number of WritebackDirty hits
system.l2.WritebackClean_hits::writebacks            4                       # number of WritebackClean hits
system.l2.WritebackClean_hits::total                4                       # number of WritebackClean hits
system.l2.ReadExReq_hits::cpu.data             191528                       # number of ReadExReq hits
system.l2.ReadExReq_hits::total                191528                       # number of ReadExReq hits
system.l2.ReadCleanReq_hits::cpu.inst               1                       # number of ReadCleanReq hits
system.l2.ReadCleanReq_hits::total                  1                       # number of ReadCleanReq hits
system.l2.ReadSharedReq_hits::cpu.data        5316665                       # number of ReadSharedReq hits
system.l2.ReadSharedReq_hits::total           5316665                       # number of ReadSharedReq hits
system.l2.demand_hits::cpu.inst                     1                       # number of demand (read+write) hits
system.l2.demand_hits::cpu.data               5508193                       # number of demand (read+write) hits
system.l2.demand_hits::total                  5508194                       # number of demand (read+write) hits
system.l2.overall_hits::cpu.inst                    1                       # number of overall hits
system.l2.overall_hits::cpu.data              5508193                       # number of overall hits
system.l2.overall_hits::total                 5508194                       # number of overall hits
system.l2.ReadExReq_misses::cpu.data           222763                       # number of ReadExReq misses
system.l2.ReadExReq_misses::total              222763                       # number of ReadExReq misses
system.l2.ReadCleanReq_misses::cpu.inst           679                       # number of ReadCleanReq misses
system.l2.ReadCleanReq_misses::total              679                       # number of ReadCleanReq misses
system.l2.ReadSharedReq_misses::cpu.data      6766819                       # number of ReadSharedReq misses
system.l2.ReadSharedReq_misses::total         6766819                       # number of ReadSharedReq misses
system.l2.demand_misses::cpu.inst                 679                       # number of demand (read+write) misses
system.l2.demand_misses::cpu.data             6989582                       # number of demand (read+write) misses
system.l2.demand_misses::total                6990261                       # number of demand (read+write) misses
system.l2.overall_misses::cpu.inst                679                       # number of overall misses
system.l2.overall_misses::cpu.data            6989582                       # number of overall misses
system.l2.overall_misses::total               6990261                       # number of overall misses
system.l2.ReadExReq_miss_latency::cpu.data  17679964000                       # number of ReadExReq miss cycles
system.l2.ReadExReq_miss_latency::total   17679964000                       # number of ReadExReq miss cycles
system.l2.ReadCleanReq_miss_latency::cpu.inst     52369000                       # number of ReadCleanReq miss cycles
system.l2.ReadCleanReq_miss_latency::total     52369000                       # number of ReadCleanReq miss cycles
system.l2.ReadSharedReq_miss_latency::cpu.data 619834111500                       # number of ReadSharedReq miss cycles
system.l2.ReadSharedReq_miss_latency::total 619834111500                       # number of ReadSharedReq miss cycles
system.l2.demand_miss_latency::cpu.inst      52369000                       # number of demand (read+write) miss cycles
system.l2.demand_miss_latency::cpu.data  637514075500                       # number of demand (read+write) miss cycles
system.l2.demand_miss_latency::total     637566444500                       # number of demand (read+write) miss cycles
system.l2.overall_miss_latency::cpu.inst     52369000                       # number of overall miss cycles
system.l2.overall_miss_latency::cpu.data 637514075500                       # number of overall miss cycles
system.l2.overall_miss_latency::total    637566444500                       # number of overall miss cycles
system.l2.WritebackDirty_accesses::writebacks      2442643                       # number of WritebackDirty accesses(hits+misses)
system.l2.WritebackDirty_accesses::total      2442643                       # number of WritebackDirty accesses(hits+misses)
system.l2.WritebackClean_accesses::writebacks            4                       # number of WritebackClean accesses(hits+misses)
system.l2.WritebackClean_accesses::total            4                       # number of WritebackClean accesses(hits+misses)
system.l2.ReadExReq_accesses::cpu.data         414291                       # number of ReadExReq accesses(hits+misses)
system.l2.ReadExReq_accesses::total            414291                       # number of ReadExReq accesses(hits+misses)
system.l2.ReadCleanReq_accesses::cpu.inst          680                       # number of ReadCleanReq accesses(hits+misses)
system.l2.ReadCleanReq_accesses::total            680                       # number of ReadCleanReq accesses(hits+misses)
system.l2.ReadSharedReq_accesses::cpu.data     12083484                       # number of ReadSharedReq accesses(hits+misses)
system.l2.ReadSharedReq_accesses::total      12083484                       # number of ReadSharedReq accesses(hits+misses)
system.l2.demand_accesses::cpu.inst               680                       # number of demand (read+write) accesses
system.l2.demand_accesses::cpu.data          12497775                       # number of demand (read+write) accesses
system.l2.demand_accesses::total             12498455                       # number of demand (read+write) accesses
system.l2.overall_accesses::cpu.inst              680                       # number of overall (read+write) accesses
system.l2.overall_accesses::cpu.data         12497775                       # number of overall (read+write) accesses
system.l2.overall_accesses::total            12498455                       # number of overall (read+write) accesses
system.l2.ReadExReq_miss_rate::cpu.data      0.537697                       # miss rate for ReadExReq accesses
system.l2.ReadExReq_miss_rate::total         0.537697                       # miss rate for ReadExReq accesses
system.l2.ReadCleanReq_miss_rate::cpu.inst     0.998529                       # miss rate for ReadCleanReq accesses
system.l2.ReadCleanReq_miss_rate::total      0.998529                       # miss rate for ReadCleanReq accesses
system.l2.ReadSharedReq_miss_rate::cpu.data     0.560006                       # miss rate for ReadSharedReq accesses
system.l2.ReadSharedReq_miss_rate::total     0.560006                       # miss rate for ReadSharedReq accesses
system.l2.demand_miss_rate::cpu.inst         0.998529                       # miss rate for demand accesses
system.l2.demand_miss_rate::cpu.data         0.559266                       # miss rate for demand accesses
system.l2.demand_miss_rate::total            0.559290                       # miss rate for demand accesses
system.l2.overall_miss_rate::cpu.inst        0.998529                       # miss rate for overall accesses
system.l2.overall_miss_rate::cpu.data        0.559266                       # miss rate for overall accesses
system.l2.overall_miss_rate::total           0.559290                       # miss rate for overall accesses
system.l2.ReadExReq_avg_miss_latency::cpu.data 79366.699138                       # average ReadExReq miss latency
system.l2.ReadExReq_avg_miss_latency::total 79366.699138                       # average ReadExReq miss latency
system.l2.ReadCleanReq_avg_miss_latency::cpu.inst 77126.656848                       # average ReadCleanReq miss latency
system.l2.ReadCleanReq_avg_miss_latency::total 77126.656848                       # average ReadCleanReq miss latency
system.l2.ReadSharedReq_avg_miss_latency::cpu.data 91599.038115                       # average ReadSharedReq miss latency
system.l2.ReadSharedReq_avg_miss_latency::total 91599.038115                       # average ReadSharedReq miss latency
system.l2.demand_avg_miss_latency::cpu.inst 77126.656848                       # average overall miss latency
system.l2.demand_avg_miss_latency::cpu.data 91209.184684                       # average overall miss latency
system.l2.demand_avg_miss_latency::total 91207.816775                       # average overall miss latency
system.l2.overall_avg_miss_latency::cpu.inst 77126.656848                       # average overall miss latency
system.l2.overall_avg_miss_latency::cpu.data 91209.184684                       # average overall miss latency
system.l2.overall_avg_miss_latency::total 91207.816775                       # average overall miss latency
system.l2.blocked_cycles::no_mshrs                  0                       # number of cycles access was blocked
system.l2.blocked_cycles::no_targets                0                       # number of cycles access was blocked
system.l2.blocked::no_mshrs                         0                       # number of cycles access was blocked
system.l2.blocked::no_targets                       0                       # number of cycles access was blocked
system.l2.avg_blocked_cycles::no_mshrs            nan                       # average number of cycles each access was blocked
system.l2.avg_blocked_cycles::no_targets          nan                       # average number of cycles each access was blocked
system.l2.fast_writes                               0                       # number of fast writes performed
system.l2.cache_copies                              0                       # number of cache copies performed
system.l2.writebacks::writebacks              1191447                       # number of writebacks
system.l2.writebacks::total                   1191447                       # number of writebacks
system.l2.CleanEvict_mshr_misses::writebacks          407                       # number of CleanEvict MSHR misses
system.l2.CleanEvict_mshr_misses::total           407                       # number of CleanEvict MSHR misses
system.l2.ReadExReq_mshr_misses::cpu.data       222763                       # number of ReadExReq MSHR misses
system.l2.ReadExReq_mshr_misses::total         222763                       # number of ReadExReq MSHR misses
system.l2.ReadCleanReq_mshr_misses::cpu.inst          679                       # number of ReadCleanReq MSHR misses
system.l2.ReadCleanReq_mshr_misses::total          679                       # number of ReadCleanReq MSHR misses
system.l2.ReadSharedReq_mshr_misses::cpu.data      6766819                       # number of ReadSharedReq MSHR misses
system.l2.ReadSharedReq_mshr_misses::total      6766819                       # number of ReadSharedReq MSHR misses
system.l2.demand_mshr_misses::cpu.inst            679                       # number of demand (read+write) MSHR misses
system.l2.demand_mshr_misses::cpu.data        6989582                       # number of demand (read+write) MSHR misses
system.l2.demand_mshr_misses::total           6990261                       # number of demand (read+write) MSHR misses
system.l2.overall_mshr_misses::cpu.inst           679                       # number of overall MSHR misses
system.l2.overall_mshr_misses::cpu.data       6989582                       # number of overall MSHR misses
system.l2.overall_mshr_misses::total          6990261                       # number of overall MSHR misses
system.l2.ReadExReq_mshr_miss_latency::cpu.data  15452334000                       # number of ReadExReq MSHR miss cycles
system.l2.ReadExReq_mshr_miss_latency::total  15452334000                       # number of ReadExReq MSHR miss cycles
system.l2.ReadCleanReq_mshr_miss_latency::cpu.inst     45579000                       # number of ReadCleanReq MSHR miss cycles
system.l2.ReadCleanReq_mshr_miss_latency::total     45579000                       # number of ReadCleanReq MSHR miss cycles
system.l2.ReadSharedReq_mshr_miss_latency::cpu.data 552165921500                       # number of ReadSharedReq MSHR miss cycles
system.l2.ReadSharedReq_mshr_miss_latency::total 552165921500                       # number of ReadSharedReq MSHR miss cycles
system.l2.demand_mshr_miss_latency::cpu.inst     45579000                       # number of demand (read+write) MSHR miss cycles
system.l2.demand_mshr_miss_latency::cpu.data 567618255500                       # number of demand (read+write) MSHR miss cycles
system.l2.demand_mshr_miss_latency::total 567663834500                       # number of demand (read+write) MSHR miss cycles
system.l2.overall_mshr_miss_latency::cpu.inst     45579000                       # number of overall MSHR miss cycles
system.l2.overall_mshr_miss_latency::cpu.data 567618255500                       # number of overall MSHR miss cycles
system.l2.overall_mshr_miss_latency::total 567663834500                       # number of overall MSHR miss cycles
system.l2.CleanEvict_mshr_miss_rate::writebacks          inf                       # mshr miss rate for CleanEvict accesses
system.l2.CleanEvict_mshr_miss_rate::total          inf                       # mshr miss rate for CleanEvict accesses
system.l2.ReadExReq_mshr_miss_rate::cpu.data     0.537697                       # mshr miss rate for ReadExReq accesses
system.l2.ReadExReq_mshr_miss_rate::total     0.537697                       # mshr miss rate for ReadExReq accesses
system.l2.ReadCleanReq_mshr_miss_rate::cpu.inst     0.998529                       # mshr miss rate for ReadCleanReq accesses
system.l2.ReadCleanReq_mshr_miss_rate::total     0.998529                       # mshr miss rate for ReadCleanReq accesses
system.l2.ReadSharedReq_mshr_miss_rate::cpu.data     0.560006                       # mshr miss rate for ReadSharedReq accesses
system.l2.ReadSharedReq_mshr_miss_rate::total     0.560006                       # mshr miss rate for ReadSharedReq accesses
system.l2.demand_mshr_miss_rate::cpu.inst     0.998529                       # mshr miss rate for demand accesses
system.l2.demand_mshr_miss_rate::cpu.data     0.559266                       # mshr miss rate for demand accesses
system.l2.demand_mshr_miss_rate::total       0.559290                       # mshr miss rate for demand accesses
system.l2.overall_mshr_miss_rate::cpu.inst     0.998529                       # mshr miss rate for overall accesses
system.l2.overall_mshr_miss_rate::cpu.data     0.559266                       # mshr miss rate for overall accesses
system.l2.overall_mshr_miss_rate::total      0.559290                       # mshr miss rate for overall accesses
system.l2.ReadExReq_avg_mshr_miss_latency::cpu.data 69366.699138                       # average ReadExReq mshr miss latency
system.l2.ReadExReq_avg_mshr_miss_latency::total 69366.699138                       # average ReadExReq mshr miss latency
system.l2.ReadCleanReq_avg_mshr_miss_latency::cpu.inst 67126.656848                       # average ReadCleanReq mshr miss latency
system.l2.ReadCleanReq_avg_mshr_miss_latency::total 67126.656848                       # average ReadCleanReq mshr miss latency
system.l2.ReadSharedReq_avg_mshr_miss_latency::cpu.data 81599.038115                       # average ReadSharedReq mshr miss latency
system.l2.ReadSharedReq_avg_mshr_miss_latency::total 81599.038115                       # average ReadSharedReq mshr miss latency
system.l2.demand_avg_mshr_miss_latency::cpu.inst 67126.656848                       # average overall mshr miss latency
system.l2.demand_avg_mshr_miss_latency::cpu.data 81209.184684                       # average overall mshr miss latency
system.l2.demand_avg_mshr_miss_latency::total 81207.816775                       # average overall mshr miss latency
system.l2.overall_avg_mshr_miss_latency::cpu.inst 67126.656848                       # average overall mshr miss latency
system.l2.overall_avg_mshr_miss_latency::cpu.data 81209.184684                       # average overall mshr miss latency
system.l2.overall_avg_mshr_miss_latency::total 81207.816775                       # average overall mshr miss latency
system.l2.no_allocate_misses                        0                       # Number of misses that were no-allocate
system.membus.trans_dist::ReadResp            6767498                       # Transaction distribution
system.membus.trans_dist::WritebackDirty      1191447                       # Transaction distribution
system.membus.trans_dist::CleanEvict          5789889                       # Transaction distribution
system.membus.trans_dist::ReadExReq            222763                       # Transaction distribution
system.membus.trans_dist::ReadExResp           222763                       # Transaction distribution
system.membus.trans_dist::ReadSharedReq       6767498                       # Transaction distribution
system.membus.pkt_count_system.l2.mem_side::system.mem_ctrls.port     20961858                       # Packet count per connected master and slave (bytes)
system.membus.pkt_count_system.l2.mem_side::total     20961858                       # Packet count per connected master and slave (bytes)
system.membus.pkt_count::total               20961858                       # Packet count per connected master and slave (bytes)
system.membus.pkt_size_system.l2.mem_side::system.mem_ctrls.port    523629312                       # Cumulative packet size per connected master and slave (bytes)
system.membus.pkt_size_system.l2.mem_side::total    523629312                       # Cumulative packet size per connected master and slave (bytes)
system.membus.pkt_size::total               523629312                       # Cumulative packet size per connected master and slave (bytes)
system.membus.snoops                                0                       # Total snoops (count)
system.membus.snoop_fanout::samples          13971597                       # Request fanout histogram
system.membus.snoop_fanout::mean                    0                       # Request fanout histogram
system.membus.snoop_fanout::stdev                   0                       # Request fanout histogram
system.membus.snoop_fanout::underflows              0      0.00%      0.00% # Request fanout histogram
system.membus.snoop_fanout::0                13971597    100.00%    100.00% # Request fanout histogram
system.membus.snoop_fanout::1                       0      0.00%    100.00% # Request fanout histogram
system.membus.snoop_fanout::overflows               0      0.00%    100.00% # Request fanout histogram
system.membus.snoop_fanout::min_value               0                       # Request fanout histogram
system.membus.snoop_fanout::max_value               0                       # Request fanout histogram
system.membus.snoop_fanout::total            13971597                       # Request fanout histogram
system.membus.reqLayer2.occupancy         18746081000                       # Layer occupancy (ticks)
system.membus.reqLayer2.utilization               1.1                       # Layer utilization (%)
system.membus.respLayer1.occupancy        38960159250                       # Layer occupancy (ticks)
system.membus.respLayer1.utilization              2.3                       # Layer utilization (%)
system.tol2bus.snoop_filter.tot_requests     24995210                       # Total number of requests made to the snoop filter.
system.tol2bus.snoop_filter.hit_single_requests     12496755                       # Number of requests hitting in the snoop filter with a single holder of the requested data.
system.tol2bus.snoop_filter.hit_multi_requests            1                       # Number of requests hitting in the snoop filter with multiple (>1) holders of the requested data.
system.tol2bus.snoop_filter.tot_snoops           5213                       # Total number of snoops made to the snoop filter.
system.tol2bus.snoop_filter.hit_single_snoops         5213                       # Number of snoops hitting in the snoop filter with a single holder of the requested data.
system.tol2bus.snoop_filter.hit_multi_snoops            0                       # Number of snoops hitting in the snoop filter with multiple (>1) holders of the requested data.
system.tol2bus.trans_dist::ReadResp          12084164                       # Transaction distribution
system.tol2bus.trans_dist::WritebackDirty      3634090                       # Transaction distribution
system.tol2bus.trans_dist::WritebackClean            4                       # Transaction distribution
system.tol2bus.trans_dist::CleanEvict        15848802                       # Transaction distribution
system.tol2bus.trans_dist::ReadExReq           414291                       # Transaction distribution
system.tol2bus.trans_dist::ReadExResp          414291                       # Transaction distribution
system.tol2bus.trans_dist::ReadCleanReq           680                       # Transaction distribution
system.tol2bus.trans_dist::ReadSharedReq     12083484                       # Transaction distribution
system.tol2bus.pkt_count_system.cpu.icache.mem_side::system.l2.cpu_side         1364                       # Packet count per connected master and slave (bytes)
system.tol2bus.pkt_count_system.cpu.dcache.mem_side::system.l2.cpu_side     37492300                       # Packet count per connected master and slave (bytes)
system.tol2bus.pkt_count::total              37493664                       # Packet count per connected master and slave (bytes)
system.tol2bus.pkt_size_system.cpu.icache.mem_side::system.l2.cpu_side        43776                       # Cumulative packet size per connected master and slave (bytes)
system.tol2bus.pkt_size_system.cpu.dcache.mem_side::system.l2.cpu_side    956186752                       # Cumulative packet size per connected master and slave (bytes)
system.tol2bus.pkt_size::total              956230528                       # Cumulative packet size per connected master and slave (bytes)
system.tol2bus.snoops                         6986142                       # Total snoops (count)
system.tol2bus.snoop_fanout::samples         19484597                       # Request fanout histogram
system.tol2bus.snoop_fanout::mean            0.000268                       # Request fanout histogram
system.tol2bus.snoop_fanout::stdev           0.016356                       # Request fanout histogram
system.tol2bus.snoop_fanout::underflows             0      0.00%      0.00% # Request fanout histogram
system.tol2bus.snoop_fanout::0               19479383     99.97%     99.97% # Request fanout histogram
system.tol2bus.snoop_fanout::1                   5214      0.03%    100.00% # Request fanout histogram
system.tol2bus.snoop_fanout::2                      0      0.00%    100.00% # Request fanout histogram
system.tol2bus.snoop_fanout::3                      0      0.00%    100.00% # Request fanout histogram
system.tol2bus.snoop_fanout::4                      0      0.00%    100.00% # Request fanout histogram
system.tol2bus.snoop_fanout::overflows              0      0.00%    100.00% # Request fanout histogram
system.tol2bus.snoop_fanout::min_value              0                       # Request fanout histogram
system.tol2bus.snoop_fanout::max_value              1                       # Request fanout histogram
system.tol2bus.snoop_fanout::total           19484597                       # Request fanout histogram
system.tol2bus.reqLayer0.occupancy        14940252000                       # Layer occupancy (ticks)
system.tol2bus.reqLayer0.utilization              0.9                       # Layer utilization (%)
system.tol2bus.respLayer0.occupancy           1020000                       # Layer occupancy (ticks)
system.tol2bus.respLayer0.utilization             0.0                       # Layer utilization (%)
system.tol2bus.respLayer1.occupancy       18746662500                       # Layer occupancy (ticks)
system.tol2bus.respLayer1.utilization             1.1                       # Layer utilization (%)

---------- End Simulation Statistics   ----------
