
---------- Begin Simulation Statistics ----------
sim_seconds                                  1.156591                       # Number of seconds simulated
sim_ticks                                1156590685500                       # Number of ticks simulated
final_tick                               1156590685500                       # Number of ticks from beginning of simulation (restored from checkpoints and never reset)
sim_freq                                 1000000000000                       # Frequency of simulated ticks
host_inst_rate                                  35575                       # Simulator instruction rate (inst/s)
host_op_rate                                    51972                       # Simulator op (including micro ops) rate (op/s)
host_tick_rate                               82291535                       # Simulator tick rate (ticks/s)
host_mem_usage                                 825976                       # Number of bytes of host memory used
host_seconds                                 14054.80                       # Real time elapsed on the host
sim_insts                                   500000000                       # Number of instructions simulated
sim_ops                                     730450481                       # Number of ops (including micro ops) simulated
system.voltage_domain.voltage                       1                       # Voltage in Volts
system.clk_domain.clock                          1000                       # Clock period in ticks
system.mem_ctrls.bytes_read::cpu.inst           64064                       # Number of bytes read from this memory
system.mem_ctrls.bytes_read::cpu.data       129457408                       # Number of bytes read from this memory
system.mem_ctrls.bytes_read::total          129521472                       # Number of bytes read from this memory
system.mem_ctrls.bytes_inst_read::cpu.inst        64064                       # Number of instructions bytes read from this memory
system.mem_ctrls.bytes_inst_read::total         64064                       # Number of instructions bytes read from this memory
system.mem_ctrls.bytes_written::writebacks     54380096                       # Number of bytes written to this memory
system.mem_ctrls.bytes_written::total        54380096                       # Number of bytes written to this memory
system.mem_ctrls.num_reads::cpu.inst             1001                       # Number of read requests responded to by this memory
system.mem_ctrls.num_reads::cpu.data          2022772                       # Number of read requests responded to by this memory
system.mem_ctrls.num_reads::total             2023773                       # Number of read requests responded to by this memory
system.mem_ctrls.num_writes::writebacks        849689                       # Number of write requests responded to by this memory
system.mem_ctrls.num_writes::total             849689                       # Number of write requests responded to by this memory
system.mem_ctrls.bw_read::cpu.inst              55390                       # Total read bandwidth from this memory (bytes/s)
system.mem_ctrls.bw_read::cpu.data          111930184                       # Total read bandwidth from this memory (bytes/s)
system.mem_ctrls.bw_read::total             111985574                       # Total read bandwidth from this memory (bytes/s)
system.mem_ctrls.bw_inst_read::cpu.inst         55390                       # Instruction read bandwidth from this memory (bytes/s)
system.mem_ctrls.bw_inst_read::total            55390                       # Instruction read bandwidth from this memory (bytes/s)
system.mem_ctrls.bw_write::writebacks        47017581                       # Write bandwidth from this memory (bytes/s)
system.mem_ctrls.bw_write::total             47017581                       # Write bandwidth from this memory (bytes/s)
system.mem_ctrls.bw_total::writebacks        47017581                       # Total bandwidth to/from this memory (bytes/s)
system.mem_ctrls.bw_total::cpu.inst             55390                       # Total bandwidth to/from this memory (bytes/s)
system.mem_ctrls.bw_total::cpu.data         111930184                       # Total bandwidth to/from this memory (bytes/s)
system.mem_ctrls.bw_total::total            159003155                       # Total bandwidth to/from this memory (bytes/s)
system.mem_ctrls.readReqs                     2023773                       # Number of read requests accepted
system.mem_ctrls.writeReqs                     849689                       # Number of write requests accepted
system.mem_ctrls.readBursts                   2023773                       # Number of DRAM read bursts, including those serviced by the write queue
system.mem_ctrls.writeBursts                   849689                       # Number of DRAM write bursts, including those merged in the write queue
system.mem_ctrls.bytesReadDRAM              127940032                       # Total number of bytes read from DRAM
system.mem_ctrls.bytesReadWrQ                 1581440                       # Total number of bytes read from write queue
system.mem_ctrls.bytesWritten                54147904                       # Total number of bytes written to DRAM
system.mem_ctrls.bytesReadSys               129521472                       # Total read bytes from the system interface side
system.mem_ctrls.bytesWrittenSys             54380096                       # Total written bytes from the system interface side
system.mem_ctrls.servicedByWrQ                  24710                       # Number of DRAM read bursts serviced by the write queue
system.mem_ctrls.mergedWrBursts                  3606                       # Number of DRAM write bursts merged with an existing one
system.mem_ctrls.neitherReadNorWriteReqs      1171067                       # Number of requests that are neither read nor write
system.mem_ctrls.perBankRdBursts::0            125958                       # Per bank write bursts
system.mem_ctrls.perBankRdBursts::1            125011                       # Per bank write bursts
system.mem_ctrls.perBankRdBursts::2            129071                       # Per bank write bursts
system.mem_ctrls.perBankRdBursts::3            121748                       # Per bank write bursts
system.mem_ctrls.perBankRdBursts::4            120552                       # Per bank write bursts
system.mem_ctrls.perBankRdBursts::5            120223                       # Per bank write bursts
system.mem_ctrls.perBankRdBursts::6            132793                       # Per bank write bursts
system.mem_ctrls.perBankRdBursts::7            130439                       # Per bank write bursts
system.mem_ctrls.perBankRdBursts::8            107988                       # Per bank write bursts
system.mem_ctrls.perBankRdBursts::9            107741                       # Per bank write bursts
system.mem_ctrls.perBankRdBursts::10           121433                       # Per bank write bursts
system.mem_ctrls.perBankRdBursts::11           125002                       # Per bank write bursts
system.mem_ctrls.perBankRdBursts::12           124980                       # Per bank write bursts
system.mem_ctrls.perBankRdBursts::13           124854                       # Per bank write bursts
system.mem_ctrls.perBankRdBursts::14           136089                       # Per bank write bursts
system.mem_ctrls.perBankRdBursts::15           145181                       # Per bank write bursts
system.mem_ctrls.perBankWrBursts::0             52495                       # Per bank write bursts
system.mem_ctrls.perBankWrBursts::1             50255                       # Per bank write bursts
system.mem_ctrls.perBankWrBursts::2             56345                       # Per bank write bursts
system.mem_ctrls.perBankWrBursts::3             51837                       # Per bank write bursts
system.mem_ctrls.perBankWrBursts::4             45638                       # Per bank write bursts
system.mem_ctrls.perBankWrBursts::5             46473                       # Per bank write bursts
system.mem_ctrls.perBankWrBursts::6             54892                       # Per bank write bursts
system.mem_ctrls.perBankWrBursts::7             59827                       # Per bank write bursts
system.mem_ctrls.perBankWrBursts::8             49179                       # Per bank write bursts
system.mem_ctrls.perBankWrBursts::9             47942                       # Per bank write bursts
system.mem_ctrls.perBankWrBursts::10            51620                       # Per bank write bursts
system.mem_ctrls.perBankWrBursts::11            51644                       # Per bank write bursts
system.mem_ctrls.perBankWrBursts::12            47272                       # Per bank write bursts
system.mem_ctrls.perBankWrBursts::13            48906                       # Per bank write bursts
system.mem_ctrls.perBankWrBursts::14            58233                       # Per bank write bursts
system.mem_ctrls.perBankWrBursts::15            73503                       # Per bank write bursts
system.mem_ctrls.numRdRetry                         0                       # Number of times read queue was full causing retry
system.mem_ctrls.numWrRetry                         0                       # Number of times write queue was full causing retry
system.mem_ctrls.totGap                  1156558019500                       # Total gap between requests
system.mem_ctrls.readPktSize::0                     0                       # Read request sizes (log2)
system.mem_ctrls.readPktSize::1                     0                       # Read request sizes (log2)
system.mem_ctrls.readPktSize::2                     0                       # Read request sizes (log2)
system.mem_ctrls.readPktSize::3                     0                       # Read request sizes (log2)
system.mem_ctrls.readPktSize::4                     0                       # Read request sizes (log2)
system.mem_ctrls.readPktSize::5                     0                       # Read request sizes (log2)
system.mem_ctrls.readPktSize::6               2023773                       # Read request sizes (log2)
system.mem_ctrls.writePktSize::0                    0                       # Write request sizes (log2)
system.mem_ctrls.writePktSize::1                    0                       # Write request sizes (log2)
system.mem_ctrls.writePktSize::2                    0                       # Write request sizes (log2)
system.mem_ctrls.writePktSize::3                    0                       # Write request sizes (log2)
system.mem_ctrls.writePktSize::4                    0                       # Write request sizes (log2)
system.mem_ctrls.writePktSize::5                    0                       # Write request sizes (log2)
system.mem_ctrls.writePktSize::6               849689                       # Write request sizes (log2)
system.mem_ctrls.rdQLenPdf::0                 1990096                       # What read queue length does an incoming req see
system.mem_ctrls.rdQLenPdf::1                    7660                       # What read queue length does an incoming req see
system.mem_ctrls.rdQLenPdf::2                     782                       # What read queue length does an incoming req see
system.mem_ctrls.rdQLenPdf::3                     525                       # What read queue length does an incoming req see
system.mem_ctrls.rdQLenPdf::4                       0                       # What read queue length does an incoming req see
system.mem_ctrls.rdQLenPdf::5                       0                       # What read queue length does an incoming req see
system.mem_ctrls.rdQLenPdf::6                       0                       # What read queue length does an incoming req see
system.mem_ctrls.rdQLenPdf::7                       0                       # What read queue length does an incoming req see
system.mem_ctrls.rdQLenPdf::8                       0                       # What read queue length does an incoming req see
system.mem_ctrls.rdQLenPdf::9                       0                       # What read queue length does an incoming req see
system.mem_ctrls.rdQLenPdf::10                      0                       # What read queue length does an incoming req see
system.mem_ctrls.rdQLenPdf::11                      0                       # What read queue length does an incoming req see
system.mem_ctrls.rdQLenPdf::12                      0                       # What read queue length does an incoming req see
system.mem_ctrls.rdQLenPdf::13                      0                       # What read queue length does an incoming req see
system.mem_ctrls.rdQLenPdf::14                      0                       # What read queue length does an incoming req see
system.mem_ctrls.rdQLenPdf::15                      0                       # What read queue length does an incoming req see
system.mem_ctrls.rdQLenPdf::16                      0                       # What read queue length does an incoming req see
system.mem_ctrls.rdQLenPdf::17                      0                       # What read queue length does an incoming req see
system.mem_ctrls.rdQLenPdf::18                      0                       # What read queue length does an incoming req see
system.mem_ctrls.rdQLenPdf::19                      0                       # What read queue length does an incoming req see
system.mem_ctrls.rdQLenPdf::20                      0                       # What read queue length does an incoming req see
system.mem_ctrls.rdQLenPdf::21                      0                       # What read queue length does an incoming req see
system.mem_ctrls.rdQLenPdf::22                      0                       # What read queue length does an incoming req see
system.mem_ctrls.rdQLenPdf::23                      0                       # What read queue length does an incoming req see
system.mem_ctrls.rdQLenPdf::24                      0                       # What read queue length does an incoming req see
system.mem_ctrls.rdQLenPdf::25                      0                       # What read queue length does an incoming req see
system.mem_ctrls.rdQLenPdf::26                      0                       # What read queue length does an incoming req see
system.mem_ctrls.rdQLenPdf::27                      0                       # What read queue length does an incoming req see
system.mem_ctrls.rdQLenPdf::28                      0                       # What read queue length does an incoming req see
system.mem_ctrls.rdQLenPdf::29                      0                       # What read queue length does an incoming req see
system.mem_ctrls.rdQLenPdf::30                      0                       # What read queue length does an incoming req see
system.mem_ctrls.rdQLenPdf::31                      0                       # What read queue length does an incoming req see
system.mem_ctrls.wrQLenPdf::0                       1                       # What write queue length does an incoming req see
system.mem_ctrls.wrQLenPdf::1                       1                       # What write queue length does an incoming req see
system.mem_ctrls.wrQLenPdf::2                       1                       # What write queue length does an incoming req see
system.mem_ctrls.wrQLenPdf::3                       1                       # What write queue length does an incoming req see
system.mem_ctrls.wrQLenPdf::4                       1                       # What write queue length does an incoming req see
system.mem_ctrls.wrQLenPdf::5                       1                       # What write queue length does an incoming req see
system.mem_ctrls.wrQLenPdf::6                       1                       # What write queue length does an incoming req see
system.mem_ctrls.wrQLenPdf::7                       1                       # What write queue length does an incoming req see
system.mem_ctrls.wrQLenPdf::8                       1                       # What write queue length does an incoming req see
system.mem_ctrls.wrQLenPdf::9                       1                       # What write queue length does an incoming req see
system.mem_ctrls.wrQLenPdf::10                      1                       # What write queue length does an incoming req see
system.mem_ctrls.wrQLenPdf::11                      1                       # What write queue length does an incoming req see
system.mem_ctrls.wrQLenPdf::12                      1                       # What write queue length does an incoming req see
system.mem_ctrls.wrQLenPdf::13                      1                       # What write queue length does an incoming req see
system.mem_ctrls.wrQLenPdf::14                      1                       # What write queue length does an incoming req see
system.mem_ctrls.wrQLenPdf::15                  26769                       # What write queue length does an incoming req see
system.mem_ctrls.wrQLenPdf::16                  30593                       # What write queue length does an incoming req see
system.mem_ctrls.wrQLenPdf::17                  48922                       # What write queue length does an incoming req see
system.mem_ctrls.wrQLenPdf::18                  49411                       # What write queue length does an incoming req see
system.mem_ctrls.wrQLenPdf::19                  49297                       # What write queue length does an incoming req see
system.mem_ctrls.wrQLenPdf::20                  49282                       # What write queue length does an incoming req see
system.mem_ctrls.wrQLenPdf::21                  49280                       # What write queue length does an incoming req see
system.mem_ctrls.wrQLenPdf::22                  49281                       # What write queue length does an incoming req see
system.mem_ctrls.wrQLenPdf::23                  49281                       # What write queue length does an incoming req see
system.mem_ctrls.wrQLenPdf::24                  49277                       # What write queue length does an incoming req see
system.mem_ctrls.wrQLenPdf::25                  49277                       # What write queue length does an incoming req see
system.mem_ctrls.wrQLenPdf::26                  49434                       # What write queue length does an incoming req see
system.mem_ctrls.wrQLenPdf::27                  49276                       # What write queue length does an incoming req see
system.mem_ctrls.wrQLenPdf::28                  49285                       # What write queue length does an incoming req see
system.mem_ctrls.wrQLenPdf::29                  49541                       # What write queue length does an incoming req see
system.mem_ctrls.wrQLenPdf::30                  49305                       # What write queue length does an incoming req see
system.mem_ctrls.wrQLenPdf::31                  49276                       # What write queue length does an incoming req see
system.mem_ctrls.wrQLenPdf::32                  49276                       # What write queue length does an incoming req see
system.mem_ctrls.wrQLenPdf::33                      5                       # What write queue length does an incoming req see
system.mem_ctrls.wrQLenPdf::34                      0                       # What write queue length does an incoming req see
system.mem_ctrls.wrQLenPdf::35                      0                       # What write queue length does an incoming req see
system.mem_ctrls.wrQLenPdf::36                      0                       # What write queue length does an incoming req see
system.mem_ctrls.wrQLenPdf::37                      0                       # What write queue length does an incoming req see
system.mem_ctrls.wrQLenPdf::38                      0                       # What write queue length does an incoming req see
system.mem_ctrls.wrQLenPdf::39                      0                       # What write queue length does an incoming req see
system.mem_ctrls.wrQLenPdf::40                      0                       # What write queue length does an incoming req see
system.mem_ctrls.wrQLenPdf::41                      0                       # What write queue length does an incoming req see
system.mem_ctrls.wrQLenPdf::42                      0                       # What write queue length does an incoming req see
system.mem_ctrls.wrQLenPdf::43                      0                       # What write queue length does an incoming req see
system.mem_ctrls.wrQLenPdf::44                      0                       # What write queue length does an incoming req see
system.mem_ctrls.wrQLenPdf::45                      0                       # What write queue length does an incoming req see
system.mem_ctrls.wrQLenPdf::46                      0                       # What write queue length does an incoming req see
system.mem_ctrls.wrQLenPdf::47                      0                       # What write queue length does an incoming req see
system.mem_ctrls.wrQLenPdf::48                      0                       # What write queue length does an incoming req see
system.mem_ctrls.wrQLenPdf::49                      0                       # What write queue length does an incoming req see
system.mem_ctrls.wrQLenPdf::50                      0                       # What write queue length does an incoming req see
system.mem_ctrls.wrQLenPdf::51                      0                       # What write queue length does an incoming req see
system.mem_ctrls.wrQLenPdf::52                      0                       # What write queue length does an incoming req see
system.mem_ctrls.wrQLenPdf::53                      0                       # What write queue length does an incoming req see
system.mem_ctrls.wrQLenPdf::54                      0                       # What write queue length does an incoming req see
system.mem_ctrls.wrQLenPdf::55                      0                       # What write queue length does an incoming req see
system.mem_ctrls.wrQLenPdf::56                      0                       # What write queue length does an incoming req see
system.mem_ctrls.wrQLenPdf::57                      0                       # What write queue length does an incoming req see
system.mem_ctrls.wrQLenPdf::58                      0                       # What write queue length does an incoming req see
system.mem_ctrls.wrQLenPdf::59                      0                       # What write queue length does an incoming req see
system.mem_ctrls.wrQLenPdf::60                      0                       # What write queue length does an incoming req see
system.mem_ctrls.wrQLenPdf::61                      0                       # What write queue length does an incoming req see
system.mem_ctrls.wrQLenPdf::62                      0                       # What write queue length does an incoming req see
system.mem_ctrls.wrQLenPdf::63                      0                       # What write queue length does an incoming req see
system.mem_ctrls.bytesPerActivate::samples      1680103                       # Bytes accessed per row activation
system.mem_ctrls.bytesPerActivate::mean    108.379032                       # Bytes accessed per row activation
system.mem_ctrls.bytesPerActivate::gmean    86.227392                       # Bytes accessed per row activation
system.mem_ctrls.bytesPerActivate::stdev   118.886039                       # Bytes accessed per row activation
system.mem_ctrls.bytesPerActivate::0-127      1204113     71.67%     71.67% # Bytes accessed per row activation
system.mem_ctrls.bytesPerActivate::128-255       360349     21.45%     93.12% # Bytes accessed per row activation
system.mem_ctrls.bytesPerActivate::256-383        50252      2.99%     96.11% # Bytes accessed per row activation
system.mem_ctrls.bytesPerActivate::384-511        16581      0.99%     97.09% # Bytes accessed per row activation
system.mem_ctrls.bytesPerActivate::512-639        30318      1.80%     98.90% # Bytes accessed per row activation
system.mem_ctrls.bytesPerActivate::640-767         3447      0.21%     99.10% # Bytes accessed per row activation
system.mem_ctrls.bytesPerActivate::768-895         2362      0.14%     99.25% # Bytes accessed per row activation
system.mem_ctrls.bytesPerActivate::896-1023         1593      0.09%     99.34% # Bytes accessed per row activation
system.mem_ctrls.bytesPerActivate::1024-1151        11088      0.66%    100.00% # Bytes accessed per row activation
system.mem_ctrls.bytesPerActivate::total      1680103                       # Bytes accessed per row activation
system.mem_ctrls.rdPerTurnAround::samples        49276                       # Reads before turning the bus around for writes
system.mem_ctrls.rdPerTurnAround::mean      40.542962                       # Reads before turning the bus around for writes
system.mem_ctrls.rdPerTurnAround::gmean     25.071958                       # Reads before turning the bus around for writes
system.mem_ctrls.rdPerTurnAround::stdev    179.463563                       # Reads before turning the bus around for writes
system.mem_ctrls.rdPerTurnAround::0-1023        49164     99.77%     99.77% # Reads before turning the bus around for writes
system.mem_ctrls.rdPerTurnAround::1024-2047           91      0.18%     99.96% # Reads before turning the bus around for writes
system.mem_ctrls.rdPerTurnAround::2048-3071           17      0.03%     99.99% # Reads before turning the bus around for writes
system.mem_ctrls.rdPerTurnAround::5120-6143            1      0.00%     99.99% # Reads before turning the bus around for writes
system.mem_ctrls.rdPerTurnAround::8192-9215            1      0.00%    100.00% # Reads before turning the bus around for writes
system.mem_ctrls.rdPerTurnAround::10240-11263            1      0.00%    100.00% # Reads before turning the bus around for writes
system.mem_ctrls.rdPerTurnAround::28672-29695            1      0.00%    100.00% # Reads before turning the bus around for writes
system.mem_ctrls.rdPerTurnAround::total         49276                       # Reads before turning the bus around for writes
system.mem_ctrls.wrPerTurnAround::samples        49276                       # Writes before turning the bus around for reads
system.mem_ctrls.wrPerTurnAround::mean      17.169839                       # Writes before turning the bus around for reads
system.mem_ctrls.wrPerTurnAround::gmean     17.142933                       # Writes before turning the bus around for reads
system.mem_ctrls.wrPerTurnAround::stdev      0.955357                       # Writes before turning the bus around for reads
system.mem_ctrls.wrPerTurnAround::16            18706     37.96%     37.96% # Writes before turning the bus around for reads
system.mem_ctrls.wrPerTurnAround::17             3801      7.71%     45.68% # Writes before turning the bus around for reads
system.mem_ctrls.wrPerTurnAround::18            26464     53.71%     99.38% # Writes before turning the bus around for reads
system.mem_ctrls.wrPerTurnAround::19              304      0.62%    100.00% # Writes before turning the bus around for reads
system.mem_ctrls.wrPerTurnAround::20                1      0.00%    100.00% # Writes before turning the bus around for reads
system.mem_ctrls.wrPerTurnAround::total         49276                       # Writes before turning the bus around for reads
system.mem_ctrls.totQLat                  32859627250                       # Total ticks spent queuing
system.mem_ctrls.totMemAccLat             70342058500                       # Total ticks spent from burst creation until serviced by the DRAM
system.mem_ctrls.totBusLat                 9995315000                       # Total ticks spent in databus transfers
system.mem_ctrls.avgQLat                     16437.51                       # Average queueing delay per DRAM burst
system.mem_ctrls.avgBusLat                    5000.00                       # Average bus latency per DRAM burst
system.mem_ctrls.avgMemAccLat                35187.51                       # Average memory access latency per DRAM burst
system.mem_ctrls.avgRdBW                       110.62                       # Average DRAM read bandwidth in MiByte/s
system.mem_ctrls.avgWrBW                        46.82                       # Average achieved write bandwidth in MiByte/s
system.mem_ctrls.avgRdBWSys                    111.99                       # Average system read bandwidth in MiByte/s
system.mem_ctrls.avgWrBWSys                     47.02                       # Average system write bandwidth in MiByte/s
system.mem_ctrls.peakBW                      12800.00                       # Theoretical peak bandwidth in MiByte/s
system.mem_ctrls.busUtil                         1.23                       # Data bus utilization in percentage
system.mem_ctrls.busUtilRead                     0.86                       # Data bus utilization in percentage for reads
system.mem_ctrls.busUtilWrite                    0.37                       # Data bus utilization in percentage for writes
system.mem_ctrls.avgRdQLen                       1.00                       # Average read queue length when enqueuing
system.mem_ctrls.avgWrQLen                      24.57                       # Average write queue length when enqueuing
system.mem_ctrls.readRowHits                   833520                       # Number of row buffer hits during reads
system.mem_ctrls.writeRowHits                  331501                       # Number of row buffer hits during writes
system.mem_ctrls.readRowHitRate                 41.70                       # Row buffer hit rate for reads
system.mem_ctrls.writeRowHitRate                39.18                       # Row buffer hit rate for writes
system.mem_ctrls.avgGap                     402496.37                       # Average gap between requests
system.mem_ctrls.pageHitRate                    40.95                       # Row buffer hit rate, read and write combined
system.mem_ctrls_0.actEnergy               6361808040                       # Energy for activate commands per rank (pJ)
system.mem_ctrls_0.preEnergy               3471224625                       # Energy for precharge commands per rank (pJ)
system.mem_ctrls_0.readEnergy              7845201000                       # Energy for read commands per rank (pJ)
system.mem_ctrls_0.writeEnergy             2707097760                       # Energy for write commands per rank (pJ)
system.mem_ctrls_0.refreshEnergy          75542519520                       # Energy for refresh commands per rank (pJ)
system.mem_ctrls_0.actBackEnergy         386584169940                       # Energy for active background per rank (pJ)
system.mem_ctrls_0.preBackEnergy         354842315250                       # Energy for precharge background per rank (pJ)
system.mem_ctrls_0.totalEnergy           837354336135                       # Total energy per rank (pJ)
system.mem_ctrls_0.averagePower            723.988337                       # Core power per rank (mW)
system.mem_ctrls_0.memoryStateTime::IDLE 588024757250                       # Time in different power states
system.mem_ctrls_0.memoryStateTime::REF   38620920000                       # Time in different power states
system.mem_ctrls_0.memoryStateTime::PRE_PDN            0                       # Time in different power states
system.mem_ctrls_0.memoryStateTime::ACT  529939730250                       # Time in different power states
system.mem_ctrls_0.memoryStateTime::ACT_PDN            0                       # Time in different power states
system.mem_ctrls_1.actEnergy               6339770640                       # Energy for activate commands per rank (pJ)
system.mem_ctrls_1.preEnergy               3459200250                       # Energy for precharge commands per rank (pJ)
system.mem_ctrls_1.readEnergy              7747490400                       # Energy for read commands per rank (pJ)
system.mem_ctrls_1.writeEnergy             2775377520                       # Energy for write commands per rank (pJ)
system.mem_ctrls_1.refreshEnergy          75542519520                       # Energy for refresh commands per rank (pJ)
system.mem_ctrls_1.actBackEnergy         387951269625                       # Energy for active background per rank (pJ)
system.mem_ctrls_1.preBackEnergy         353643105000                       # Energy for precharge background per rank (pJ)
system.mem_ctrls_1.totalEnergy           837458732955                       # Total energy per rank (pJ)
system.mem_ctrls_1.averagePower            724.078600                       # Core power per rank (mW)
system.mem_ctrls_1.memoryStateTime::IDLE 586007667250                       # Time in different power states
system.mem_ctrls_1.memoryStateTime::REF   38620920000                       # Time in different power states
system.mem_ctrls_1.memoryStateTime::PRE_PDN            0                       # Time in different power states
system.mem_ctrls_1.memoryStateTime::ACT  531956820250                       # Time in different power states
system.mem_ctrls_1.memoryStateTime::ACT_PDN            0                       # Time in different power states
system.cpu_voltage_domain.voltage                   1                       # Voltage in Volts
system.cpu_clk_domain.clock                       500                       # Clock period in ticks
system.cpu.apic_clk_domain.clock                 8000                       # Clock period in ticks
system.cpu.workload.num_syscalls                   86                       # Number of system calls
system.cpu.numCycles                       2313181371                       # number of cpu cycles simulated
system.cpu.numWorkItemsStarted                      0                       # number of work items this cpu started
system.cpu.numWorkItemsCompleted                    0                       # number of work items this cpu completed
system.cpu.committedInsts                   500000000                       # Number of instructions committed
system.cpu.committedOps                     730450481                       # Number of ops (including micro ops) committed
system.cpu.num_int_alu_accesses             729688887                       # Number of integer alu accesses
system.cpu.num_fp_alu_accesses                    761                       # Number of float alu accesses
system.cpu.num_func_calls                     1453959                       # number of times a function call or return occured
system.cpu.num_conditional_control_insts     31770494                       # number of instructions that are conditional controls
system.cpu.num_int_insts                    729688887                       # number of integer instructions
system.cpu.num_fp_insts                           761                       # number of float instructions
system.cpu.num_int_register_reads          1698743312                       # number of times the integer registers were read
system.cpu.num_int_register_writes          621892930                       # number of times the integer registers were written
system.cpu.num_fp_register_reads                 1183                       # number of times the floating registers were read
system.cpu.num_fp_register_writes                 497                       # number of times the floating registers were written
system.cpu.num_cc_register_reads            180840590                       # number of times the CC registers were read
system.cpu.num_cc_register_writes           276245123                       # number of times the CC registers were written
system.cpu.num_mem_refs                     295985437                       # number of memory refs
system.cpu.num_load_insts                   225946734                       # Number of load instructions
system.cpu.num_store_insts                   70038703                       # Number of store instructions
system.cpu.num_idle_cycles                          0                       # Number of idle cycles
system.cpu.num_busy_cycles                 2313181371                       # Number of busy cycles
system.cpu.not_idle_fraction                        1                       # Percentage of non-idle cycles
system.cpu.idle_fraction                            0                       # Percentage of idle cycles
system.cpu.Branches                          37843290                       # Number of branches fetched
system.cpu.op_class::No_OpClass                 94739      0.01%      0.01% # Class of executed instruction
system.cpu.op_class::IntAlu                 434349056     59.46%     59.48% # Class of executed instruction
system.cpu.op_class::IntMult                    20662      0.00%     59.48% # Class of executed instruction
system.cpu.op_class::IntDiv                       119      0.00%     59.48% # Class of executed instruction
system.cpu.op_class::FloatAdd                     468      0.00%     59.48% # Class of executed instruction
system.cpu.op_class::FloatCmp                       0      0.00%     59.48% # Class of executed instruction
system.cpu.op_class::FloatCvt                       0      0.00%     59.48% # Class of executed instruction
system.cpu.op_class::FloatMult                      0      0.00%     59.48% # Class of executed instruction
system.cpu.op_class::FloatDiv                       0      0.00%     59.48% # Class of executed instruction
system.cpu.op_class::FloatSqrt                      0      0.00%     59.48% # Class of executed instruction
system.cpu.op_class::SimdAdd                        0      0.00%     59.48% # Class of executed instruction
system.cpu.op_class::SimdAddAcc                     0      0.00%     59.48% # Class of executed instruction
system.cpu.op_class::SimdAlu                        0      0.00%     59.48% # Class of executed instruction
system.cpu.op_class::SimdCmp                        0      0.00%     59.48% # Class of executed instruction
system.cpu.op_class::SimdCvt                        0      0.00%     59.48% # Class of executed instruction
system.cpu.op_class::SimdMisc                       0      0.00%     59.48% # Class of executed instruction
system.cpu.op_class::SimdMult                       0      0.00%     59.48% # Class of executed instruction
system.cpu.op_class::SimdMultAcc                    0      0.00%     59.48% # Class of executed instruction
system.cpu.op_class::SimdShift                      0      0.00%     59.48% # Class of executed instruction
system.cpu.op_class::SimdShiftAcc                   0      0.00%     59.48% # Class of executed instruction
system.cpu.op_class::SimdSqrt                       0      0.00%     59.48% # Class of executed instruction
system.cpu.op_class::SimdFloatAdd                   0      0.00%     59.48% # Class of executed instruction
system.cpu.op_class::SimdFloatAlu                   0      0.00%     59.48% # Class of executed instruction
system.cpu.op_class::SimdFloatCmp                   0      0.00%     59.48% # Class of executed instruction
system.cpu.op_class::SimdFloatCvt                   0      0.00%     59.48% # Class of executed instruction
system.cpu.op_class::SimdFloatDiv                   0      0.00%     59.48% # Class of executed instruction
system.cpu.op_class::SimdFloatMisc                  0      0.00%     59.48% # Class of executed instruction
system.cpu.op_class::SimdFloatMult                  0      0.00%     59.48% # Class of executed instruction
system.cpu.op_class::SimdFloatMultAcc               0      0.00%     59.48% # Class of executed instruction
system.cpu.op_class::SimdFloatSqrt                  0      0.00%     59.48% # Class of executed instruction
system.cpu.op_class::MemRead                225946734     30.93%     90.41% # Class of executed instruction
system.cpu.op_class::MemWrite                70038703      9.59%    100.00% # Class of executed instruction
system.cpu.op_class::IprAccess                      0      0.00%    100.00% # Class of executed instruction
system.cpu.op_class::InstPrefetch                   0      0.00%    100.00% # Class of executed instruction
system.cpu.op_class::total                  730450481                       # Class of executed instruction
system.cpu.dcache.tags.replacements           2042531                       # number of replacements
system.cpu.dcache.tags.tagsinuse          2042.678381                       # Cycle average of tags in use
system.cpu.dcache.tags.total_refs           293940866                       # Total number of references to valid blocks.
system.cpu.dcache.tags.sampled_refs           2044579                       # Sample count of references to valid blocks.
system.cpu.dcache.tags.avg_refs            143.765962                       # Average number of references to valid blocks.
system.cpu.dcache.tags.warmup_cycle        3528601500                       # Cycle when the warmup percentage was hit.
system.cpu.dcache.tags.occ_blocks::cpu.data  2042.678381                       # Average occupied blocks per requestor
system.cpu.dcache.tags.occ_percent::cpu.data     0.997402                       # Average percentage of cache occupancy
system.cpu.dcache.tags.occ_percent::total     0.997402                       # Average percentage of cache occupancy
system.cpu.dcache.tags.occ_task_id_blocks::1024         2048                       # Occupied blocks per task id
system.cpu.dcache.tags.age_task_id_blocks_1024::1            2                       # Occupied blocks per task id
system.cpu.dcache.tags.age_task_id_blocks_1024::2           16                       # Occupied blocks per task id
system.cpu.dcache.tags.age_task_id_blocks_1024::3         1422                       # Occupied blocks per task id
system.cpu.dcache.tags.age_task_id_blocks_1024::4          608                       # Occupied blocks per task id
system.cpu.dcache.tags.occ_task_id_percent::1024            1                       # Percentage of cache occupancy per task id
system.cpu.dcache.tags.tag_accesses         594015469                       # Number of tag accesses
system.cpu.dcache.tags.data_accesses        594015469                       # Number of data accesses
system.cpu.dcache.ReadReq_hits::cpu.data    224491166                       # number of ReadReq hits
system.cpu.dcache.ReadReq_hits::total       224491166                       # number of ReadReq hits
system.cpu.dcache.WriteReq_hits::cpu.data     69449700                       # number of WriteReq hits
system.cpu.dcache.WriteReq_hits::total       69449700                       # number of WriteReq hits
system.cpu.dcache.demand_hits::cpu.data     293940866                       # number of demand (read+write) hits
system.cpu.dcache.demand_hits::total        293940866                       # number of demand (read+write) hits
system.cpu.dcache.overall_hits::cpu.data    293940866                       # number of overall hits
system.cpu.dcache.overall_hits::total       293940866                       # number of overall hits
system.cpu.dcache.ReadReq_misses::cpu.data      1439192                       # number of ReadReq misses
system.cpu.dcache.ReadReq_misses::total       1439192                       # number of ReadReq misses
system.cpu.dcache.WriteReq_misses::cpu.data       589003                       # number of WriteReq misses
system.cpu.dcache.WriteReq_misses::total       589003                       # number of WriteReq misses
system.cpu.dcache.SoftPFReq_misses::cpu.data        16384                       # number of SoftPFReq misses
system.cpu.dcache.SoftPFReq_misses::total        16384                       # number of SoftPFReq misses
system.cpu.dcache.demand_misses::cpu.data      2028195                       # number of demand (read+write) misses
system.cpu.dcache.demand_misses::total        2028195                       # number of demand (read+write) misses
system.cpu.dcache.overall_misses::cpu.data      2044579                       # number of overall misses
system.cpu.dcache.overall_misses::total       2044579                       # number of overall misses
system.cpu.dcache.ReadReq_miss_latency::cpu.data 121858182500                       # number of ReadReq miss cycles
system.cpu.dcache.ReadReq_miss_latency::total 121858182500                       # number of ReadReq miss cycles
system.cpu.dcache.WriteReq_miss_latency::cpu.data  53149862000                       # number of WriteReq miss cycles
system.cpu.dcache.WriteReq_miss_latency::total  53149862000                       # number of WriteReq miss cycles
system.cpu.dcache.demand_miss_latency::cpu.data 175008044500                       # number of demand (read+write) miss cycles
system.cpu.dcache.demand_miss_latency::total 175008044500                       # number of demand (read+write) miss cycles
system.cpu.dcache.overall_miss_latency::cpu.data 175008044500                       # number of overall miss cycles
system.cpu.dcache.overall_miss_latency::total 175008044500                       # number of overall miss cycles
system.cpu.dcache.ReadReq_accesses::cpu.data    225930358                       # number of ReadReq accesses(hits+misses)
system.cpu.dcache.ReadReq_accesses::total    225930358                       # number of ReadReq accesses(hits+misses)
system.cpu.dcache.WriteReq_accesses::cpu.data     70038703                       # number of WriteReq accesses(hits+misses)
system.cpu.dcache.WriteReq_accesses::total     70038703                       # number of WriteReq accesses(hits+misses)
system.cpu.dcache.SoftPFReq_accesses::cpu.data        16384                       # number of SoftPFReq accesses(hits+misses)
system.cpu.dcache.SoftPFReq_accesses::total        16384                       # number of SoftPFReq accesses(hits+misses)
system.cpu.dcache.demand_accesses::cpu.data    295969061                       # number of demand (read+write) accesses
system.cpu.dcache.demand_accesses::total    295969061                       # number of demand (read+write) accesses
system.cpu.dcache.overall_accesses::cpu.data    295985445                       # number of overall (read+write) accesses
system.cpu.dcache.overall_accesses::total    295985445                       # number of overall (read+write) accesses
system.cpu.dcache.ReadReq_miss_rate::cpu.data     0.006370                       # miss rate for ReadReq accesses
system.cpu.dcache.ReadReq_miss_rate::total     0.006370                       # miss rate for ReadReq accesses
system.cpu.dcache.WriteReq_miss_rate::cpu.data     0.008410                       # miss rate for WriteReq accesses
system.cpu.dcache.WriteReq_miss_rate::total     0.008410                       # miss rate for WriteReq accesses
system.cpu.dcache.SoftPFReq_miss_rate::cpu.data            1                       # miss rate for SoftPFReq accesses
system.cpu.dcache.SoftPFReq_miss_rate::total            1                       # miss rate for SoftPFReq accesses
system.cpu.dcache.demand_miss_rate::cpu.data     0.006853                       # miss rate for demand accesses
system.cpu.dcache.demand_miss_rate::total     0.006853                       # miss rate for demand accesses
system.cpu.dcache.overall_miss_rate::cpu.data     0.006908                       # miss rate for overall accesses
system.cpu.dcache.overall_miss_rate::total     0.006908                       # miss rate for overall accesses
system.cpu.dcache.ReadReq_avg_miss_latency::cpu.data 84671.247825                       # average ReadReq miss latency
system.cpu.dcache.ReadReq_avg_miss_latency::total 84671.247825                       # average ReadReq miss latency
system.cpu.dcache.WriteReq_avg_miss_latency::cpu.data 90236.997095                       # average WriteReq miss latency
system.cpu.dcache.WriteReq_avg_miss_latency::total 90236.997095                       # average WriteReq miss latency
system.cpu.dcache.demand_avg_miss_latency::cpu.data 86287.583048                       # average overall miss latency
system.cpu.dcache.demand_avg_miss_latency::total 86287.583048                       # average overall miss latency
system.cpu.dcache.overall_avg_miss_latency::cpu.data 85596.127369                       # average overall miss latency
system.cpu.dcache.overall_avg_miss_latency::total 85596.127369                       # average overall miss latency
system.cpu.dcache.blocked_cycles::no_mshrs       313937                       # number of cycles access was blocked
system.cpu.dcache.blocked_cycles::no_targets            0                       # number of cycles access was blocked
system.cpu.dcache.blocked::no_mshrs              4648                       # number of cycles access was blocked
system.cpu.dcache.blocked::no_targets               0                       # number of cycles access was blocked
system.cpu.dcache.avg_blocked_cycles::no_mshrs    67.542384                       # average number of cycles each access was blocked
system.cpu.dcache.avg_blocked_cycles::no_targets          nan                       # average number of cycles each access was blocked
system.cpu.dcache.fast_writes                       0                       # number of fast writes performed
system.cpu.dcache.cache_copies                      0                       # number of cache copies performed
system.cpu.dcache.writebacks::writebacks       871508                       # number of writebacks
system.cpu.dcache.writebacks::total            871508                       # number of writebacks
system.cpu.dcache.ReadReq_mshr_misses::cpu.data      1439192                       # number of ReadReq MSHR misses
system.cpu.dcache.ReadReq_mshr_misses::total      1439192                       # number of ReadReq MSHR misses
system.cpu.dcache.WriteReq_mshr_misses::cpu.data       589003                       # number of WriteReq MSHR misses
system.cpu.dcache.WriteReq_mshr_misses::total       589003                       # number of WriteReq MSHR misses
system.cpu.dcache.SoftPFReq_mshr_misses::cpu.data        16384                       # number of SoftPFReq MSHR misses
system.cpu.dcache.SoftPFReq_mshr_misses::total        16384                       # number of SoftPFReq MSHR misses
system.cpu.dcache.demand_mshr_misses::cpu.data      2028195                       # number of demand (read+write) MSHR misses
system.cpu.dcache.demand_mshr_misses::total      2028195                       # number of demand (read+write) MSHR misses
system.cpu.dcache.overall_mshr_misses::cpu.data      2044579                       # number of overall MSHR misses
system.cpu.dcache.overall_mshr_misses::total      2044579                       # number of overall MSHR misses
system.cpu.dcache.ReadReq_mshr_miss_latency::cpu.data 120418990500                       # number of ReadReq MSHR miss cycles
system.cpu.dcache.ReadReq_mshr_miss_latency::total 120418990500                       # number of ReadReq MSHR miss cycles
system.cpu.dcache.WriteReq_mshr_miss_latency::cpu.data  52560859000                       # number of WriteReq MSHR miss cycles
system.cpu.dcache.WriteReq_mshr_miss_latency::total  52560859000                       # number of WriteReq MSHR miss cycles
system.cpu.dcache.SoftPFReq_mshr_miss_latency::cpu.data   1420803483                       # number of SoftPFReq MSHR miss cycles
system.cpu.dcache.SoftPFReq_mshr_miss_latency::total   1420803483                       # number of SoftPFReq MSHR miss cycles
system.cpu.dcache.demand_mshr_miss_latency::cpu.data 172979849500                       # number of demand (read+write) MSHR miss cycles
system.cpu.dcache.demand_mshr_miss_latency::total 172979849500                       # number of demand (read+write) MSHR miss cycles
system.cpu.dcache.overall_mshr_miss_latency::cpu.data 174400652983                       # number of overall MSHR miss cycles
system.cpu.dcache.overall_mshr_miss_latency::total 174400652983                       # number of overall MSHR miss cycles
system.cpu.dcache.ReadReq_mshr_miss_rate::cpu.data     0.006370                       # mshr miss rate for ReadReq accesses
system.cpu.dcache.ReadReq_mshr_miss_rate::total     0.006370                       # mshr miss rate for ReadReq accesses
system.cpu.dcache.WriteReq_mshr_miss_rate::cpu.data     0.008410                       # mshr miss rate for WriteReq accesses
system.cpu.dcache.WriteReq_mshr_miss_rate::total     0.008410                       # mshr miss rate for WriteReq accesses
system.cpu.dcache.SoftPFReq_mshr_miss_rate::cpu.data            1                       # mshr miss rate for SoftPFReq accesses
system.cpu.dcache.SoftPFReq_mshr_miss_rate::total            1                       # mshr miss rate for SoftPFReq accesses
system.cpu.dcache.demand_mshr_miss_rate::cpu.data     0.006853                       # mshr miss rate for demand accesses
system.cpu.dcache.demand_mshr_miss_rate::total     0.006853                       # mshr miss rate for demand accesses
system.cpu.dcache.overall_mshr_miss_rate::cpu.data     0.006908                       # mshr miss rate for overall accesses
system.cpu.dcache.overall_mshr_miss_rate::total     0.006908                       # mshr miss rate for overall accesses
system.cpu.dcache.ReadReq_avg_mshr_miss_latency::cpu.data 83671.247825                       # average ReadReq mshr miss latency
system.cpu.dcache.ReadReq_avg_mshr_miss_latency::total 83671.247825                       # average ReadReq mshr miss latency
system.cpu.dcache.WriteReq_avg_mshr_miss_latency::cpu.data 89236.997095                       # average WriteReq mshr miss latency
system.cpu.dcache.WriteReq_avg_mshr_miss_latency::total 89236.997095                       # average WriteReq mshr miss latency
system.cpu.dcache.SoftPFReq_avg_mshr_miss_latency::cpu.data 86718.962585                       # average SoftPFReq mshr miss latency
system.cpu.dcache.SoftPFReq_avg_mshr_miss_latency::total 86718.962585                       # average SoftPFReq mshr miss latency
system.cpu.dcache.demand_avg_mshr_miss_latency::cpu.data 85287.583048                       # average overall mshr miss latency
system.cpu.dcache.demand_avg_mshr_miss_latency::total 85287.583048                       # average overall mshr miss latency
system.cpu.dcache.overall_avg_mshr_miss_latency::cpu.data 85299.053244                       # average overall mshr miss latency
system.cpu.dcache.overall_avg_mshr_miss_latency::total 85299.053244                       # average overall mshr miss latency
system.cpu.dcache.no_allocate_misses                0                       # Number of misses that were no-allocate
system.cpu.dtb_walker_cache.tags.replacements            0                       # number of replacements
system.cpu.dtb_walker_cache.tags.tagsinuse            0                       # Cycle average of tags in use
system.cpu.dtb_walker_cache.tags.total_refs            0                       # Total number of references to valid blocks.
system.cpu.dtb_walker_cache.tags.sampled_refs            0                       # Sample count of references to valid blocks.
system.cpu.dtb_walker_cache.tags.avg_refs          nan                       # Average number of references to valid blocks.
system.cpu.dtb_walker_cache.tags.warmup_cycle            0                       # Cycle when the warmup percentage was hit.
system.cpu.dtb_walker_cache.tags.tag_accesses            0                       # Number of tag accesses
system.cpu.dtb_walker_cache.tags.data_accesses            0                       # Number of data accesses
system.cpu.dtb_walker_cache.blocked_cycles::no_mshrs            0                       # number of cycles access was blocked
system.cpu.dtb_walker_cache.blocked_cycles::no_targets            0                       # number of cycles access was blocked
system.cpu.dtb_walker_cache.blocked::no_mshrs            0                       # number of cycles access was blocked
system.cpu.dtb_walker_cache.blocked::no_targets            0                       # number of cycles access was blocked
system.cpu.dtb_walker_cache.avg_blocked_cycles::no_mshrs          nan                       # average number of cycles each access was blocked
system.cpu.dtb_walker_cache.avg_blocked_cycles::no_targets          nan                       # average number of cycles each access was blocked
system.cpu.dtb_walker_cache.fast_writes             0                       # number of fast writes performed
system.cpu.dtb_walker_cache.cache_copies            0                       # number of cache copies performed
system.cpu.dtb_walker_cache.no_allocate_misses            0                       # Number of misses that were no-allocate
system.cpu.icache.tags.replacements                45                       # number of replacements
system.cpu.icache.tags.tagsinuse           668.640778                       # Cycle average of tags in use
system.cpu.icache.tags.total_refs           687396859                       # Total number of references to valid blocks.
system.cpu.icache.tags.sampled_refs              1001                       # Sample count of references to valid blocks.
system.cpu.icache.tags.avg_refs          686710.148851                       # Average number of references to valid blocks.
system.cpu.icache.tags.warmup_cycle                 0                       # Cycle when the warmup percentage was hit.
system.cpu.icache.tags.occ_blocks::cpu.inst   668.640778                       # Average occupied blocks per requestor
system.cpu.icache.tags.occ_percent::cpu.inst     0.326485                       # Average percentage of cache occupancy
system.cpu.icache.tags.occ_percent::total     0.326485                       # Average percentage of cache occupancy
system.cpu.icache.tags.occ_task_id_blocks::1024          956                       # Occupied blocks per task id
system.cpu.icache.tags.age_task_id_blocks_1024::1            7                       # Occupied blocks per task id
system.cpu.icache.tags.age_task_id_blocks_1024::3           25                       # Occupied blocks per task id
system.cpu.icache.tags.age_task_id_blocks_1024::4          924                       # Occupied blocks per task id
system.cpu.icache.tags.occ_task_id_percent::1024     0.466797                       # Percentage of cache occupancy per task id
system.cpu.icache.tags.tag_accesses        1374796721                       # Number of tag accesses
system.cpu.icache.tags.data_accesses       1374796721                       # Number of data accesses
system.cpu.icache.ReadReq_hits::cpu.inst    687396859                       # number of ReadReq hits
system.cpu.icache.ReadReq_hits::total       687396859                       # number of ReadReq hits
system.cpu.icache.demand_hits::cpu.inst     687396859                       # number of demand (read+write) hits
system.cpu.icache.demand_hits::total        687396859                       # number of demand (read+write) hits
system.cpu.icache.overall_hits::cpu.inst    687396859                       # number of overall hits
system.cpu.icache.overall_hits::total       687396859                       # number of overall hits
system.cpu.icache.ReadReq_misses::cpu.inst         1001                       # number of ReadReq misses
system.cpu.icache.ReadReq_misses::total          1001                       # number of ReadReq misses
system.cpu.icache.demand_misses::cpu.inst         1001                       # number of demand (read+write) misses
system.cpu.icache.demand_misses::total           1001                       # number of demand (read+write) misses
system.cpu.icache.overall_misses::cpu.inst         1001                       # number of overall misses
system.cpu.icache.overall_misses::total          1001                       # number of overall misses
system.cpu.icache.ReadReq_miss_latency::cpu.inst     78542500                       # number of ReadReq miss cycles
system.cpu.icache.ReadReq_miss_latency::total     78542500                       # number of ReadReq miss cycles
system.cpu.icache.demand_miss_latency::cpu.inst     78542500                       # number of demand (read+write) miss cycles
system.cpu.icache.demand_miss_latency::total     78542500                       # number of demand (read+write) miss cycles
system.cpu.icache.overall_miss_latency::cpu.inst     78542500                       # number of overall miss cycles
system.cpu.icache.overall_miss_latency::total     78542500                       # number of overall miss cycles
system.cpu.icache.ReadReq_accesses::cpu.inst    687397860                       # number of ReadReq accesses(hits+misses)
system.cpu.icache.ReadReq_accesses::total    687397860                       # number of ReadReq accesses(hits+misses)
system.cpu.icache.demand_accesses::cpu.inst    687397860                       # number of demand (read+write) accesses
system.cpu.icache.demand_accesses::total    687397860                       # number of demand (read+write) accesses
system.cpu.icache.overall_accesses::cpu.inst    687397860                       # number of overall (read+write) accesses
system.cpu.icache.overall_accesses::total    687397860                       # number of overall (read+write) accesses
system.cpu.icache.ReadReq_miss_rate::cpu.inst     0.000001                       # miss rate for ReadReq accesses
system.cpu.icache.ReadReq_miss_rate::total     0.000001                       # miss rate for ReadReq accesses
system.cpu.icache.demand_miss_rate::cpu.inst     0.000001                       # miss rate for demand accesses
system.cpu.icache.demand_miss_rate::total     0.000001                       # miss rate for demand accesses
system.cpu.icache.overall_miss_rate::cpu.inst     0.000001                       # miss rate for overall accesses
system.cpu.icache.overall_miss_rate::total     0.000001                       # miss rate for overall accesses
system.cpu.icache.ReadReq_avg_miss_latency::cpu.inst 78464.035964                       # average ReadReq miss latency
system.cpu.icache.ReadReq_avg_miss_latency::total 78464.035964                       # average ReadReq miss latency
system.cpu.icache.demand_avg_miss_latency::cpu.inst 78464.035964                       # average overall miss latency
system.cpu.icache.demand_avg_miss_latency::total 78464.035964                       # average overall miss latency
system.cpu.icache.overall_avg_miss_latency::cpu.inst 78464.035964                       # average overall miss latency
system.cpu.icache.overall_avg_miss_latency::total 78464.035964                       # average overall miss latency
system.cpu.icache.blocked_cycles::no_mshrs            0                       # number of cycles access was blocked
system.cpu.icache.blocked_cycles::no_targets            0                       # number of cycles access was blocked
system.cpu.icache.blocked::no_mshrs                 0                       # number of cycles access was blocked
system.cpu.icache.blocked::no_targets               0                       # number of cycles access was blocked
system.cpu.icache.avg_blocked_cycles::no_mshrs          nan                       # average number of cycles each access was blocked
system.cpu.icache.avg_blocked_cycles::no_targets          nan                       # average number of cycles each access was blocked
system.cpu.icache.fast_writes                       0                       # number of fast writes performed
system.cpu.icache.cache_copies                      0                       # number of cache copies performed
system.cpu.icache.writebacks::writebacks           45                       # number of writebacks
system.cpu.icache.writebacks::total                45                       # number of writebacks
system.cpu.icache.ReadReq_mshr_misses::cpu.inst         1001                       # number of ReadReq MSHR misses
system.cpu.icache.ReadReq_mshr_misses::total         1001                       # number of ReadReq MSHR misses
system.cpu.icache.demand_mshr_misses::cpu.inst         1001                       # number of demand (read+write) MSHR misses
system.cpu.icache.demand_mshr_misses::total         1001                       # number of demand (read+write) MSHR misses
system.cpu.icache.overall_mshr_misses::cpu.inst         1001                       # number of overall MSHR misses
system.cpu.icache.overall_mshr_misses::total         1001                       # number of overall MSHR misses
system.cpu.icache.ReadReq_mshr_miss_latency::cpu.inst     77541500                       # number of ReadReq MSHR miss cycles
system.cpu.icache.ReadReq_mshr_miss_latency::total     77541500                       # number of ReadReq MSHR miss cycles
system.cpu.icache.demand_mshr_miss_latency::cpu.inst     77541500                       # number of demand (read+write) MSHR miss cycles
system.cpu.icache.demand_mshr_miss_latency::total     77541500                       # number of demand (read+write) MSHR miss cycles
system.cpu.icache.overall_mshr_miss_latency::cpu.inst     77541500                       # number of overall MSHR miss cycles
system.cpu.icache.overall_mshr_miss_latency::total     77541500                       # number of overall MSHR miss cycles
system.cpu.icache.ReadReq_mshr_miss_rate::cpu.inst     0.000001                       # mshr miss rate for ReadReq accesses
system.cpu.icache.ReadReq_mshr_miss_rate::total     0.000001                       # mshr miss rate for ReadReq accesses
system.cpu.icache.demand_mshr_miss_rate::cpu.inst     0.000001                       # mshr miss rate for demand accesses
system.cpu.icache.demand_mshr_miss_rate::total     0.000001                       # mshr miss rate for demand accesses
system.cpu.icache.overall_mshr_miss_rate::cpu.inst     0.000001                       # mshr miss rate for overall accesses
system.cpu.icache.overall_mshr_miss_rate::total     0.000001                       # mshr miss rate for overall accesses
system.cpu.icache.ReadReq_avg_mshr_miss_latency::cpu.inst 77464.035964                       # average ReadReq mshr miss latency
system.cpu.icache.ReadReq_avg_mshr_miss_latency::total 77464.035964                       # average ReadReq mshr miss latency
system.cpu.icache.demand_avg_mshr_miss_latency::cpu.inst 77464.035964                       # average overall mshr miss latency
system.cpu.icache.demand_avg_mshr_miss_latency::total 77464.035964                       # average overall mshr miss latency
system.cpu.icache.overall_avg_mshr_miss_latency::cpu.inst 77464.035964                       # average overall mshr miss latency
system.cpu.icache.overall_avg_mshr_miss_latency::total 77464.035964                       # average overall mshr miss latency
system.cpu.icache.no_allocate_misses                0                       # Number of misses that were no-allocate
system.cpu.itb_walker_cache.tags.replacements            0                       # number of replacements
system.cpu.itb_walker_cache.tags.tagsinuse            0                       # Cycle average of tags in use
system.cpu.itb_walker_cache.tags.total_refs            0                       # Total number of references to valid blocks.
system.cpu.itb_walker_cache.tags.sampled_refs            0                       # Sample count of references to valid blocks.
system.cpu.itb_walker_cache.tags.avg_refs          nan                       # Average number of references to valid blocks.
system.cpu.itb_walker_cache.tags.warmup_cycle            0                       # Cycle when the warmup percentage was hit.
system.cpu.itb_walker_cache.tags.tag_accesses            0                       # Number of tag accesses
system.cpu.itb_walker_cache.tags.data_accesses            0                       # Number of data accesses
system.cpu.itb_walker_cache.blocked_cycles::no_mshrs            0                       # number of cycles access was blocked
system.cpu.itb_walker_cache.blocked_cycles::no_targets            0                       # number of cycles access was blocked
system.cpu.itb_walker_cache.blocked::no_mshrs            0                       # number of cycles access was blocked
system.cpu.itb_walker_cache.blocked::no_targets            0                       # number of cycles access was blocked
system.cpu.itb_walker_cache.avg_blocked_cycles::no_mshrs          nan                       # average number of cycles each access was blocked
system.cpu.itb_walker_cache.avg_blocked_cycles::no_targets          nan                       # average number of cycles each access was blocked
system.cpu.itb_walker_cache.fast_writes             0                       # number of fast writes performed
system.cpu.itb_walker_cache.cache_copies            0                       # number of cache copies performed
system.cpu.itb_walker_cache.no_allocate_misses            0                       # Number of misses that were no-allocate
system.l2.tags.replacements                   2306304                       # number of replacements
system.l2.tags.tagsinuse                    30.153912                       # Cycle average of tags in use
system.l2.tags.total_refs                       21807                       # Total number of references to valid blocks.
system.l2.tags.sampled_refs                   2306323                       # Sample count of references to valid blocks.
system.l2.tags.avg_refs                      0.009455                       # Average number of references to valid blocks.
system.l2.tags.warmup_cycle                  11074000                       # Cycle when the warmup percentage was hit.
system.l2.tags.occ_blocks::writebacks       14.082015                       # Average occupied blocks per requestor
system.l2.tags.occ_blocks::cpu.inst          0.121580                       # Average occupied blocks per requestor
system.l2.tags.occ_blocks::cpu.data         15.950318                       # Average occupied blocks per requestor
system.l2.tags.occ_percent::writebacks       0.440063                       # Average percentage of cache occupancy
system.l2.tags.occ_percent::cpu.inst         0.003799                       # Average percentage of cache occupancy
system.l2.tags.occ_percent::cpu.data         0.498447                       # Average percentage of cache occupancy
system.l2.tags.occ_percent::total            0.942310                       # Average percentage of cache occupancy
system.l2.tags.occ_task_id_blocks::1024            19                       # Occupied blocks per task id
system.l2.tags.age_task_id_blocks_1024::1            9                       # Occupied blocks per task id
system.l2.tags.age_task_id_blocks_1024::2           10                       # Occupied blocks per task id
system.l2.tags.occ_task_id_percent::1024     0.593750                       # Percentage of cache occupancy per task id
system.l2.tags.tag_accesses                   6983481                       # Number of tag accesses
system.l2.tags.data_accesses                  6983481                       # Number of data accesses
system.l2.WritebackDirty_hits::writebacks       871508                       # number of WritebackDirty hits
system.l2.WritebackDirty_hits::total           871508                       # number of WritebackDirty hits
system.l2.WritebackClean_hits::writebacks           45                       # number of WritebackClean hits
system.l2.WritebackClean_hits::total               45                       # number of WritebackClean hits
system.l2.ReadExReq_hits::cpu.data               3879                       # number of ReadExReq hits
system.l2.ReadExReq_hits::total                  3879                       # number of ReadExReq hits
system.l2.ReadSharedReq_hits::cpu.data          17928                       # number of ReadSharedReq hits
system.l2.ReadSharedReq_hits::total             17928                       # number of ReadSharedReq hits
system.l2.demand_hits::cpu.data                 21807                       # number of demand (read+write) hits
system.l2.demand_hits::total                    21807                       # number of demand (read+write) hits
system.l2.overall_hits::cpu.data                21807                       # number of overall hits
system.l2.overall_hits::total                   21807                       # number of overall hits
system.l2.ReadExReq_misses::cpu.data           585124                       # number of ReadExReq misses
system.l2.ReadExReq_misses::total              585124                       # number of ReadExReq misses
system.l2.ReadCleanReq_misses::cpu.inst          1001                       # number of ReadCleanReq misses
system.l2.ReadCleanReq_misses::total             1001                       # number of ReadCleanReq misses
system.l2.ReadSharedReq_misses::cpu.data      1437648                       # number of ReadSharedReq misses
system.l2.ReadSharedReq_misses::total         1437648                       # number of ReadSharedReq misses
system.l2.demand_misses::cpu.inst                1001                       # number of demand (read+write) misses
system.l2.demand_misses::cpu.data             2022772                       # number of demand (read+write) misses
system.l2.demand_misses::total                2023773                       # number of demand (read+write) misses
system.l2.overall_misses::cpu.inst               1001                       # number of overall misses
system.l2.overall_misses::cpu.data            2022772                       # number of overall misses
system.l2.overall_misses::total               2023773                       # number of overall misses
system.l2.ReadExReq_miss_latency::cpu.data  51636624000                       # number of ReadExReq miss cycles
system.l2.ReadExReq_miss_latency::total   51636624000                       # number of ReadExReq miss cycles
system.l2.ReadCleanReq_miss_latency::cpu.inst     76039500                       # number of ReadCleanReq miss cycles
system.l2.ReadCleanReq_miss_latency::total     76039500                       # number of ReadCleanReq miss cycles
system.l2.ReadSharedReq_miss_latency::cpu.data 119468113500                       # number of ReadSharedReq miss cycles
system.l2.ReadSharedReq_miss_latency::total 119468113500                       # number of ReadSharedReq miss cycles
system.l2.demand_miss_latency::cpu.inst      76039500                       # number of demand (read+write) miss cycles
system.l2.demand_miss_latency::cpu.data  171104737500                       # number of demand (read+write) miss cycles
system.l2.demand_miss_latency::total     171180777000                       # number of demand (read+write) miss cycles
system.l2.overall_miss_latency::cpu.inst     76039500                       # number of overall miss cycles
system.l2.overall_miss_latency::cpu.data 171104737500                       # number of overall miss cycles
system.l2.overall_miss_latency::total    171180777000                       # number of overall miss cycles
system.l2.WritebackDirty_accesses::writebacks       871508                       # number of WritebackDirty accesses(hits+misses)
system.l2.WritebackDirty_accesses::total       871508                       # number of WritebackDirty accesses(hits+misses)
system.l2.WritebackClean_accesses::writebacks           45                       # number of WritebackClean accesses(hits+misses)
system.l2.WritebackClean_accesses::total           45                       # number of WritebackClean accesses(hits+misses)
system.l2.ReadExReq_accesses::cpu.data         589003                       # number of ReadExReq accesses(hits+misses)
system.l2.ReadExReq_accesses::total            589003                       # number of ReadExReq accesses(hits+misses)
system.l2.ReadCleanReq_accesses::cpu.inst         1001                       # number of ReadCleanReq accesses(hits+misses)
system.l2.ReadCleanReq_accesses::total           1001                       # number of ReadCleanReq accesses(hits+misses)
system.l2.ReadSharedReq_accesses::cpu.data      1455576                       # number of ReadSharedReq accesses(hits+misses)
system.l2.ReadSharedReq_accesses::total       1455576                       # number of ReadSharedReq accesses(hits+misses)
system.l2.demand_accesses::cpu.inst              1001                       # number of demand (read+write) accesses
system.l2.demand_accesses::cpu.data           2044579                       # number of demand (read+write) accesses
system.l2.demand_accesses::total              2045580                       # number of demand (read+write) accesses
system.l2.overall_accesses::cpu.inst             1001                       # number of overall (read+write) accesses
system.l2.overall_accesses::cpu.data          2044579                       # number of overall (read+write) accesses
system.l2.overall_accesses::total             2045580                       # number of overall (read+write) accesses
system.l2.ReadExReq_miss_rate::cpu.data      0.993414                       # miss rate for ReadExReq accesses
system.l2.ReadExReq_miss_rate::total         0.993414                       # miss rate for ReadExReq accesses
system.l2.ReadCleanReq_miss_rate::cpu.inst            1                       # miss rate for ReadCleanReq accesses
system.l2.ReadCleanReq_miss_rate::total             1                       # miss rate for ReadCleanReq accesses
system.l2.ReadSharedReq_miss_rate::cpu.data     0.987683                       # miss rate for ReadSharedReq accesses
system.l2.ReadSharedReq_miss_rate::total     0.987683                       # miss rate for ReadSharedReq accesses
system.l2.demand_miss_rate::cpu.inst                1                       # miss rate for demand accesses
system.l2.demand_miss_rate::cpu.data         0.989334                       # miss rate for demand accesses
system.l2.demand_miss_rate::total            0.989339                       # miss rate for demand accesses
system.l2.overall_miss_rate::cpu.inst               1                       # miss rate for overall accesses
system.l2.overall_miss_rate::cpu.data        0.989334                       # miss rate for overall accesses
system.l2.overall_miss_rate::total           0.989339                       # miss rate for overall accesses
system.l2.ReadExReq_avg_miss_latency::cpu.data 88249.027557                       # average ReadExReq miss latency
system.l2.ReadExReq_avg_miss_latency::total 88249.027557                       # average ReadExReq miss latency
system.l2.ReadCleanReq_avg_miss_latency::cpu.inst 75963.536464                       # average ReadCleanReq miss latency
system.l2.ReadCleanReq_avg_miss_latency::total 75963.536464                       # average ReadCleanReq miss latency
system.l2.ReadSharedReq_avg_miss_latency::cpu.data 83099.697214                       # average ReadSharedReq miss latency
system.l2.ReadSharedReq_avg_miss_latency::total 83099.697214                       # average ReadSharedReq miss latency
system.l2.demand_avg_miss_latency::cpu.inst 75963.536464                       # average overall miss latency
system.l2.demand_avg_miss_latency::cpu.data 84589.235712                       # average overall miss latency
system.l2.demand_avg_miss_latency::total 84584.969263                       # average overall miss latency
system.l2.overall_avg_miss_latency::cpu.inst 75963.536464                       # average overall miss latency
system.l2.overall_avg_miss_latency::cpu.data 84589.235712                       # average overall miss latency
system.l2.overall_avg_miss_latency::total 84584.969263                       # average overall miss latency
system.l2.blocked_cycles::no_mshrs                  0                       # number of cycles access was blocked
system.l2.blocked_cycles::no_targets                0                       # number of cycles access was blocked
system.l2.blocked::no_mshrs                         0                       # number of cycles access was blocked
system.l2.blocked::no_targets                       0                       # number of cycles access was blocked
system.l2.avg_blocked_cycles::no_mshrs            nan                       # average number of cycles each access was blocked
system.l2.avg_blocked_cycles::no_targets          nan                       # average number of cycles each access was blocked
system.l2.fast_writes                               0                       # number of fast writes performed
system.l2.cache_copies                              0                       # number of cache copies performed
system.l2.writebacks::writebacks               849689                       # number of writebacks
system.l2.writebacks::total                    849689                       # number of writebacks
system.l2.CleanEvict_mshr_misses::writebacks      1171022                       # number of CleanEvict MSHR misses
system.l2.CleanEvict_mshr_misses::total       1171022                       # number of CleanEvict MSHR misses
system.l2.ReadExReq_mshr_misses::cpu.data       585124                       # number of ReadExReq MSHR misses
system.l2.ReadExReq_mshr_misses::total         585124                       # number of ReadExReq MSHR misses
system.l2.ReadCleanReq_mshr_misses::cpu.inst         1001                       # number of ReadCleanReq MSHR misses
system.l2.ReadCleanReq_mshr_misses::total         1001                       # number of ReadCleanReq MSHR misses
system.l2.ReadSharedReq_mshr_misses::cpu.data      1437648                       # number of ReadSharedReq MSHR misses
system.l2.ReadSharedReq_mshr_misses::total      1437648                       # number of ReadSharedReq MSHR misses
system.l2.demand_mshr_misses::cpu.inst           1001                       # number of demand (read+write) MSHR misses
system.l2.demand_mshr_misses::cpu.data        2022772                       # number of demand (read+write) MSHR misses
system.l2.demand_mshr_misses::total           2023773                       # number of demand (read+write) MSHR misses
system.l2.overall_mshr_misses::cpu.inst          1001                       # number of overall MSHR misses
system.l2.overall_mshr_misses::cpu.data       2022772                       # number of overall MSHR misses
system.l2.overall_mshr_misses::total          2023773                       # number of overall MSHR misses
system.l2.ReadExReq_mshr_miss_latency::cpu.data  45785384000                       # number of ReadExReq MSHR miss cycles
system.l2.ReadExReq_mshr_miss_latency::total  45785384000                       # number of ReadExReq MSHR miss cycles
system.l2.ReadCleanReq_mshr_miss_latency::cpu.inst     66029500                       # number of ReadCleanReq MSHR miss cycles
system.l2.ReadCleanReq_mshr_miss_latency::total     66029500                       # number of ReadCleanReq MSHR miss cycles
system.l2.ReadSharedReq_mshr_miss_latency::cpu.data 105091633500                       # number of ReadSharedReq MSHR miss cycles
system.l2.ReadSharedReq_mshr_miss_latency::total 105091633500                       # number of ReadSharedReq MSHR miss cycles
system.l2.demand_mshr_miss_latency::cpu.inst     66029500                       # number of demand (read+write) MSHR miss cycles
system.l2.demand_mshr_miss_latency::cpu.data 150877017500                       # number of demand (read+write) MSHR miss cycles
system.l2.demand_mshr_miss_latency::total 150943047000                       # number of demand (read+write) MSHR miss cycles
system.l2.overall_mshr_miss_latency::cpu.inst     66029500                       # number of overall MSHR miss cycles
system.l2.overall_mshr_miss_latency::cpu.data 150877017500                       # number of overall MSHR miss cycles
system.l2.overall_mshr_miss_latency::total 150943047000                       # number of overall MSHR miss cycles
system.l2.CleanEvict_mshr_miss_rate::writebacks          inf                       # mshr miss rate for CleanEvict accesses
system.l2.CleanEvict_mshr_miss_rate::total          inf                       # mshr miss rate for CleanEvict accesses
system.l2.ReadExReq_mshr_miss_rate::cpu.data     0.993414                       # mshr miss rate for ReadExReq accesses
system.l2.ReadExReq_mshr_miss_rate::total     0.993414                       # mshr miss rate for ReadExReq accesses
system.l2.ReadCleanReq_mshr_miss_rate::cpu.inst            1                       # mshr miss rate for ReadCleanReq accesses
system.l2.ReadCleanReq_mshr_miss_rate::total            1                       # mshr miss rate for ReadCleanReq accesses
system.l2.ReadSharedReq_mshr_miss_rate::cpu.data     0.987683                       # mshr miss rate for ReadSharedReq accesses
system.l2.ReadSharedReq_mshr_miss_rate::total     0.987683                       # mshr miss rate for ReadSharedReq accesses
system.l2.demand_mshr_miss_rate::cpu.inst            1                       # mshr miss rate for demand accesses
system.l2.demand_mshr_miss_rate::cpu.data     0.989334                       # mshr miss rate for demand accesses
system.l2.demand_mshr_miss_rate::total       0.989339                       # mshr miss rate for demand accesses
system.l2.overall_mshr_miss_rate::cpu.inst            1                       # mshr miss rate for overall accesses
system.l2.overall_mshr_miss_rate::cpu.data     0.989334                       # mshr miss rate for overall accesses
system.l2.overall_mshr_miss_rate::total      0.989339                       # mshr miss rate for overall accesses
system.l2.ReadExReq_avg_mshr_miss_latency::cpu.data 78249.027557                       # average ReadExReq mshr miss latency
system.l2.ReadExReq_avg_mshr_miss_latency::total 78249.027557                       # average ReadExReq mshr miss latency
system.l2.ReadCleanReq_avg_mshr_miss_latency::cpu.inst 65963.536464                       # average ReadCleanReq mshr miss latency
system.l2.ReadCleanReq_avg_mshr_miss_latency::total 65963.536464                       # average ReadCleanReq mshr miss latency
system.l2.ReadSharedReq_avg_mshr_miss_latency::cpu.data 73099.697214                       # average ReadSharedReq mshr miss latency
system.l2.ReadSharedReq_avg_mshr_miss_latency::total 73099.697214                       # average ReadSharedReq mshr miss latency
system.l2.demand_avg_mshr_miss_latency::cpu.inst 65963.536464                       # average overall mshr miss latency
system.l2.demand_avg_mshr_miss_latency::cpu.data 74589.235712                       # average overall mshr miss latency
system.l2.demand_avg_mshr_miss_latency::total 74584.969263                       # average overall mshr miss latency
system.l2.overall_avg_mshr_miss_latency::cpu.inst 65963.536464                       # average overall mshr miss latency
system.l2.overall_avg_mshr_miss_latency::cpu.data 74589.235712                       # average overall mshr miss latency
system.l2.overall_avg_mshr_miss_latency::total 74584.969263                       # average overall mshr miss latency
system.l2.no_allocate_misses                        0                       # Number of misses that were no-allocate
system.membus.trans_dist::ReadResp            1438649                       # Transaction distribution
system.membus.trans_dist::WritebackDirty       849689                       # Transaction distribution
system.membus.trans_dist::CleanEvict          1171067                       # Transaction distribution
system.membus.trans_dist::ReadExReq            585124                       # Transaction distribution
system.membus.trans_dist::ReadExResp           585124                       # Transaction distribution
system.membus.trans_dist::ReadSharedReq       1438649                       # Transaction distribution
system.membus.pkt_count_system.l2.mem_side::system.mem_ctrls.port      6068302                       # Packet count per connected master and slave (bytes)
system.membus.pkt_count_system.l2.mem_side::total      6068302                       # Packet count per connected master and slave (bytes)
system.membus.pkt_count::total                6068302                       # Packet count per connected master and slave (bytes)
system.membus.pkt_size_system.l2.mem_side::system.mem_ctrls.port    183901568                       # Cumulative packet size per connected master and slave (bytes)
system.membus.pkt_size_system.l2.mem_side::total    183901568                       # Cumulative packet size per connected master and slave (bytes)
system.membus.pkt_size::total               183901568                       # Cumulative packet size per connected master and slave (bytes)
system.membus.snoops                                0                       # Total snoops (count)
system.membus.snoop_fanout::samples           4044529                       # Request fanout histogram
system.membus.snoop_fanout::mean                    0                       # Request fanout histogram
system.membus.snoop_fanout::stdev                   0                       # Request fanout histogram
system.membus.snoop_fanout::underflows              0      0.00%      0.00% # Request fanout histogram
system.membus.snoop_fanout::0                 4044529    100.00%    100.00% # Request fanout histogram
system.membus.snoop_fanout::1                       0      0.00%    100.00% # Request fanout histogram
system.membus.snoop_fanout::overflows               0      0.00%    100.00% # Request fanout histogram
system.membus.snoop_fanout::min_value               0                       # Request fanout histogram
system.membus.snoop_fanout::max_value               0                       # Request fanout histogram
system.membus.snoop_fanout::total             4044529                       # Request fanout histogram
system.membus.reqLayer2.occupancy          7449703500                       # Layer occupancy (ticks)
system.membus.reqLayer2.utilization               0.6                       # Layer utilization (%)
system.membus.respLayer1.occupancy        11016844750                       # Layer occupancy (ticks)
system.membus.respLayer1.utilization              1.0                       # Layer utilization (%)
system.tol2bus.snoop_filter.tot_requests      4088156                       # Total number of requests made to the snoop filter.
system.tol2bus.snoop_filter.hit_single_requests      2042576                       # Number of requests hitting in the snoop filter with a single holder of the requested data.
system.tol2bus.snoop_filter.hit_multi_requests            1                       # Number of requests hitting in the snoop filter with multiple (>1) holders of the requested data.
system.tol2bus.snoop_filter.tot_snoops        1456570                       # Total number of snoops made to the snoop filter.
system.tol2bus.snoop_filter.hit_single_snoops      1456569                       # Number of snoops hitting in the snoop filter with a single holder of the requested data.
system.tol2bus.snoop_filter.hit_multi_snoops            1                       # Number of snoops hitting in the snoop filter with multiple (>1) holders of the requested data.
system.tol2bus.trans_dist::ReadResp           1456577                       # Transaction distribution
system.tol2bus.trans_dist::WritebackDirty      1721197                       # Transaction distribution
system.tol2bus.trans_dist::WritebackClean           45                       # Transaction distribution
system.tol2bus.trans_dist::CleanEvict         2627637                       # Transaction distribution
system.tol2bus.trans_dist::ReadExReq           589003                       # Transaction distribution
system.tol2bus.trans_dist::ReadExResp          589003                       # Transaction distribution
system.tol2bus.trans_dist::ReadCleanReq          1001                       # Transaction distribution
system.tol2bus.trans_dist::ReadSharedReq      1455576                       # Transaction distribution
system.tol2bus.pkt_count_system.cpu.icache.mem_side::system.l2.cpu_side         2047                       # Packet count per connected master and slave (bytes)
system.tol2bus.pkt_count_system.cpu.dcache.mem_side::system.l2.cpu_side      6131688                       # Packet count per connected master and slave (bytes)
system.tol2bus.pkt_count::total               6133735                       # Packet count per connected master and slave (bytes)
system.tol2bus.pkt_size_system.cpu.icache.mem_side::system.l2.cpu_side        66944                       # Cumulative packet size per connected master and slave (bytes)
system.tol2bus.pkt_size_system.cpu.dcache.mem_side::system.l2.cpu_side    186629568                       # Cumulative packet size per connected master and slave (bytes)
system.tol2bus.pkt_size::total              186696512                       # Cumulative packet size per connected master and slave (bytes)
system.tol2bus.snoops                         2306304                       # Total snoops (count)
system.tol2bus.snoop_fanout::samples          4351884                       # Request fanout histogram
system.tol2bus.snoop_fanout::mean            0.334699                       # Request fanout histogram
system.tol2bus.snoop_fanout::stdev           0.471886                       # Request fanout histogram
system.tol2bus.snoop_fanout::underflows             0      0.00%      0.00% # Request fanout histogram
system.tol2bus.snoop_fanout::0                2895313     66.53%     66.53% # Request fanout histogram
system.tol2bus.snoop_fanout::1                1456570     33.47%    100.00% # Request fanout histogram
system.tol2bus.snoop_fanout::2                      1      0.00%    100.00% # Request fanout histogram
system.tol2bus.snoop_fanout::3                      0      0.00%    100.00% # Request fanout histogram
system.tol2bus.snoop_fanout::4                      0      0.00%    100.00% # Request fanout histogram
system.tol2bus.snoop_fanout::overflows              0      0.00%    100.00% # Request fanout histogram
system.tol2bus.snoop_fanout::min_value              0                       # Request fanout histogram
system.tol2bus.snoop_fanout::max_value              2                       # Request fanout histogram
system.tol2bus.snoop_fanout::total            4351884                       # Request fanout histogram
system.tol2bus.reqLayer0.occupancy         2915631000                       # Layer occupancy (ticks)
system.tol2bus.reqLayer0.utilization              0.3                       # Layer utilization (%)
system.tol2bus.respLayer0.occupancy           1501500                       # Layer occupancy (ticks)
system.tol2bus.respLayer0.utilization             0.0                       # Layer utilization (%)
system.tol2bus.respLayer1.occupancy        3066868500                       # Layer occupancy (ticks)
system.tol2bus.respLayer1.utilization             0.3                       # Layer utilization (%)

---------- End Simulation Statistics   ----------
