
---------- Begin Simulation Statistics ----------
sim_seconds                                  1.624954                       # Number of seconds simulated
sim_ticks                                1624954065500                       # Number of ticks simulated
final_tick                               1624954065500                       # Number of ticks from beginning of simulation (restored from checkpoints and never reset)
sim_freq                                 1000000000000                       # Frequency of simulated ticks
host_inst_rate                                  32512                       # Simulator instruction rate (inst/s)
host_op_rate                                    56981                       # Simulator op (including micro ops) rate (op/s)
host_tick_rate                              105660977                       # Simulator tick rate (ticks/s)
host_mem_usage                                 826272                       # Number of bytes of host memory used
host_seconds                                 15378.94                       # Real time elapsed on the host
sim_insts                                   500000000                       # Number of instructions simulated
sim_ops                                     876313791                       # Number of ops (including micro ops) simulated
system.voltage_domain.voltage                       1                       # Voltage in Volts
system.clk_domain.clock                          1000                       # Clock period in ticks
system.mem_ctrls.bytes_read::cpu.inst           46016                       # Number of bytes read from this memory
system.mem_ctrls.bytes_read::cpu.data       419155200                       # Number of bytes read from this memory
system.mem_ctrls.bytes_read::total          419201216                       # Number of bytes read from this memory
system.mem_ctrls.bytes_inst_read::cpu.inst        46016                       # Number of instructions bytes read from this memory
system.mem_ctrls.bytes_inst_read::total         46016                       # Number of instructions bytes read from this memory
system.mem_ctrls.bytes_written::writebacks     71417408                       # Number of bytes written to this memory
system.mem_ctrls.bytes_written::total        71417408                       # Number of bytes written to this memory
system.mem_ctrls.num_reads::cpu.inst              719                       # Number of read requests responded to by this memory
system.mem_ctrls.num_reads::cpu.data          6549300                       # Number of read requests responded to by this memory
system.mem_ctrls.num_reads::total             6550019                       # Number of read requests responded to by this memory
system.mem_ctrls.num_writes::writebacks       1115897                       # Number of write requests responded to by this memory
system.mem_ctrls.num_writes::total            1115897                       # Number of write requests responded to by this memory
system.mem_ctrls.bw_read::cpu.inst              28318                       # Total read bandwidth from this memory (bytes/s)
system.mem_ctrls.bw_read::cpu.data          257948953                       # Total read bandwidth from this memory (bytes/s)
system.mem_ctrls.bw_read::total             257977271                       # Total read bandwidth from this memory (bytes/s)
system.mem_ctrls.bw_inst_read::cpu.inst         28318                       # Instruction read bandwidth from this memory (bytes/s)
system.mem_ctrls.bw_inst_read::total            28318                       # Instruction read bandwidth from this memory (bytes/s)
system.mem_ctrls.bw_write::writebacks        43950417                       # Write bandwidth from this memory (bytes/s)
system.mem_ctrls.bw_write::total             43950417                       # Write bandwidth from this memory (bytes/s)
system.mem_ctrls.bw_total::writebacks        43950417                       # Total bandwidth to/from this memory (bytes/s)
system.mem_ctrls.bw_total::cpu.inst             28318                       # Total bandwidth to/from this memory (bytes/s)
system.mem_ctrls.bw_total::cpu.data         257948953                       # Total bandwidth to/from this memory (bytes/s)
system.mem_ctrls.bw_total::total            301927688                       # Total bandwidth to/from this memory (bytes/s)
system.mem_ctrls.readReqs                     6550019                       # Number of read requests accepted
system.mem_ctrls.writeReqs                    1115897                       # Number of write requests accepted
system.mem_ctrls.readBursts                   6550019                       # Number of DRAM read bursts, including those serviced by the write queue
system.mem_ctrls.writeBursts                  1115897                       # Number of DRAM write bursts, including those merged in the write queue
system.mem_ctrls.bytesReadDRAM              418407424                       # Total number of bytes read from DRAM
system.mem_ctrls.bytesReadWrQ                  793792                       # Total number of bytes read from write queue
system.mem_ctrls.bytesWritten                71411136                       # Total number of bytes written to DRAM
system.mem_ctrls.bytesReadSys               419201216                       # Total read bytes from the system interface side
system.mem_ctrls.bytesWrittenSys             71417408                       # Total written bytes from the system interface side
system.mem_ctrls.servicedByWrQ                  12403                       # Number of DRAM read bursts serviced by the write queue
system.mem_ctrls.mergedWrBursts                    78                       # Number of DRAM write bursts merged with an existing one
system.mem_ctrls.neitherReadNorWriteReqs      5417212                       # Number of requests that are neither read nor write
system.mem_ctrls.perBankRdBursts::0            421231                       # Per bank write bursts
system.mem_ctrls.perBankRdBursts::1            402161                       # Per bank write bursts
system.mem_ctrls.perBankRdBursts::2            404598                       # Per bank write bursts
system.mem_ctrls.perBankRdBursts::3            424868                       # Per bank write bursts
system.mem_ctrls.perBankRdBursts::4            397737                       # Per bank write bursts
system.mem_ctrls.perBankRdBursts::5            399787                       # Per bank write bursts
system.mem_ctrls.perBankRdBursts::6            407076                       # Per bank write bursts
system.mem_ctrls.perBankRdBursts::7            397581                       # Per bank write bursts
system.mem_ctrls.perBankRdBursts::8            401630                       # Per bank write bursts
system.mem_ctrls.perBankRdBursts::9            400361                       # Per bank write bursts
system.mem_ctrls.perBankRdBursts::10           401986                       # Per bank write bursts
system.mem_ctrls.perBankRdBursts::11           407129                       # Per bank write bursts
system.mem_ctrls.perBankRdBursts::12           417944                       # Per bank write bursts
system.mem_ctrls.perBankRdBursts::13           421052                       # Per bank write bursts
system.mem_ctrls.perBankRdBursts::14           414783                       # Per bank write bursts
system.mem_ctrls.perBankRdBursts::15           417692                       # Per bank write bursts
system.mem_ctrls.perBankWrBursts::0             71851                       # Per bank write bursts
system.mem_ctrls.perBankWrBursts::1             71029                       # Per bank write bursts
system.mem_ctrls.perBankWrBursts::2             71284                       # Per bank write bursts
system.mem_ctrls.perBankWrBursts::3             75521                       # Per bank write bursts
system.mem_ctrls.perBankWrBursts::4             68939                       # Per bank write bursts
system.mem_ctrls.perBankWrBursts::5             66275                       # Per bank write bursts
system.mem_ctrls.perBankWrBursts::6             70036                       # Per bank write bursts
system.mem_ctrls.perBankWrBursts::7             65842                       # Per bank write bursts
system.mem_ctrls.perBankWrBursts::8             66997                       # Per bank write bursts
system.mem_ctrls.perBankWrBursts::9             65603                       # Per bank write bursts
system.mem_ctrls.perBankWrBursts::10            66005                       # Per bank write bursts
system.mem_ctrls.perBankWrBursts::11            69659                       # Per bank write bursts
system.mem_ctrls.perBankWrBursts::12            71879                       # Per bank write bursts
system.mem_ctrls.perBankWrBursts::13            71963                       # Per bank write bursts
system.mem_ctrls.perBankWrBursts::14            71368                       # Per bank write bursts
system.mem_ctrls.perBankWrBursts::15            71548                       # Per bank write bursts
system.mem_ctrls.numRdRetry                         0                       # Number of times read queue was full causing retry
system.mem_ctrls.numWrRetry                         0                       # Number of times write queue was full causing retry
system.mem_ctrls.totGap                  1624937875500                       # Total gap between requests
system.mem_ctrls.readPktSize::0                     0                       # Read request sizes (log2)
system.mem_ctrls.readPktSize::1                     0                       # Read request sizes (log2)
system.mem_ctrls.readPktSize::2                     0                       # Read request sizes (log2)
system.mem_ctrls.readPktSize::3                     0                       # Read request sizes (log2)
system.mem_ctrls.readPktSize::4                     0                       # Read request sizes (log2)
system.mem_ctrls.readPktSize::5                     0                       # Read request sizes (log2)
system.mem_ctrls.readPktSize::6               6550019                       # Read request sizes (log2)
system.mem_ctrls.writePktSize::0                    0                       # Write request sizes (log2)
system.mem_ctrls.writePktSize::1                    0                       # Write request sizes (log2)
system.mem_ctrls.writePktSize::2                    0                       # Write request sizes (log2)
system.mem_ctrls.writePktSize::3                    0                       # Write request sizes (log2)
system.mem_ctrls.writePktSize::4                    0                       # Write request sizes (log2)
system.mem_ctrls.writePktSize::5                    0                       # Write request sizes (log2)
system.mem_ctrls.writePktSize::6              1115897                       # Write request sizes (log2)
system.mem_ctrls.rdQLenPdf::0                 6537616                       # What read queue length does an incoming req see
system.mem_ctrls.rdQLenPdf::1                       0                       # What read queue length does an incoming req see
system.mem_ctrls.rdQLenPdf::2                       0                       # What read queue length does an incoming req see
system.mem_ctrls.rdQLenPdf::3                       0                       # What read queue length does an incoming req see
system.mem_ctrls.rdQLenPdf::4                       0                       # What read queue length does an incoming req see
system.mem_ctrls.rdQLenPdf::5                       0                       # What read queue length does an incoming req see
system.mem_ctrls.rdQLenPdf::6                       0                       # What read queue length does an incoming req see
system.mem_ctrls.rdQLenPdf::7                       0                       # What read queue length does an incoming req see
system.mem_ctrls.rdQLenPdf::8                       0                       # What read queue length does an incoming req see
system.mem_ctrls.rdQLenPdf::9                       0                       # What read queue length does an incoming req see
system.mem_ctrls.rdQLenPdf::10                      0                       # What read queue length does an incoming req see
system.mem_ctrls.rdQLenPdf::11                      0                       # What read queue length does an incoming req see
system.mem_ctrls.rdQLenPdf::12                      0                       # What read queue length does an incoming req see
system.mem_ctrls.rdQLenPdf::13                      0                       # What read queue length does an incoming req see
system.mem_ctrls.rdQLenPdf::14                      0                       # What read queue length does an incoming req see
system.mem_ctrls.rdQLenPdf::15                      0                       # What read queue length does an incoming req see
system.mem_ctrls.rdQLenPdf::16                      0                       # What read queue length does an incoming req see
system.mem_ctrls.rdQLenPdf::17                      0                       # What read queue length does an incoming req see
system.mem_ctrls.rdQLenPdf::18                      0                       # What read queue length does an incoming req see
system.mem_ctrls.rdQLenPdf::19                      0                       # What read queue length does an incoming req see
system.mem_ctrls.rdQLenPdf::20                      0                       # What read queue length does an incoming req see
system.mem_ctrls.rdQLenPdf::21                      0                       # What read queue length does an incoming req see
system.mem_ctrls.rdQLenPdf::22                      0                       # What read queue length does an incoming req see
system.mem_ctrls.rdQLenPdf::23                      0                       # What read queue length does an incoming req see
system.mem_ctrls.rdQLenPdf::24                      0                       # What read queue length does an incoming req see
system.mem_ctrls.rdQLenPdf::25                      0                       # What read queue length does an incoming req see
system.mem_ctrls.rdQLenPdf::26                      0                       # What read queue length does an incoming req see
system.mem_ctrls.rdQLenPdf::27                      0                       # What read queue length does an incoming req see
system.mem_ctrls.rdQLenPdf::28                      0                       # What read queue length does an incoming req see
system.mem_ctrls.rdQLenPdf::29                      0                       # What read queue length does an incoming req see
system.mem_ctrls.rdQLenPdf::30                      0                       # What read queue length does an incoming req see
system.mem_ctrls.rdQLenPdf::31                      0                       # What read queue length does an incoming req see
system.mem_ctrls.wrQLenPdf::0                       1                       # What write queue length does an incoming req see
system.mem_ctrls.wrQLenPdf::1                       1                       # What write queue length does an incoming req see
system.mem_ctrls.wrQLenPdf::2                       1                       # What write queue length does an incoming req see
system.mem_ctrls.wrQLenPdf::3                       1                       # What write queue length does an incoming req see
system.mem_ctrls.wrQLenPdf::4                       1                       # What write queue length does an incoming req see
system.mem_ctrls.wrQLenPdf::5                       1                       # What write queue length does an incoming req see
system.mem_ctrls.wrQLenPdf::6                       1                       # What write queue length does an incoming req see
system.mem_ctrls.wrQLenPdf::7                       1                       # What write queue length does an incoming req see
system.mem_ctrls.wrQLenPdf::8                       1                       # What write queue length does an incoming req see
system.mem_ctrls.wrQLenPdf::9                       1                       # What write queue length does an incoming req see
system.mem_ctrls.wrQLenPdf::10                      1                       # What write queue length does an incoming req see
system.mem_ctrls.wrQLenPdf::11                      1                       # What write queue length does an incoming req see
system.mem_ctrls.wrQLenPdf::12                      1                       # What write queue length does an incoming req see
system.mem_ctrls.wrQLenPdf::13                      1                       # What write queue length does an incoming req see
system.mem_ctrls.wrQLenPdf::14                      1                       # What write queue length does an incoming req see
system.mem_ctrls.wrQLenPdf::15                  32895                       # What write queue length does an incoming req see
system.mem_ctrls.wrQLenPdf::16                  34272                       # What write queue length does an incoming req see
system.mem_ctrls.wrQLenPdf::17                  65430                       # What write queue length does an incoming req see
system.mem_ctrls.wrQLenPdf::18                  65543                       # What write queue length does an incoming req see
system.mem_ctrls.wrQLenPdf::19                  65529                       # What write queue length does an incoming req see
system.mem_ctrls.wrQLenPdf::20                  65544                       # What write queue length does an incoming req see
system.mem_ctrls.wrQLenPdf::21                  65522                       # What write queue length does an incoming req see
system.mem_ctrls.wrQLenPdf::22                  65516                       # What write queue length does an incoming req see
system.mem_ctrls.wrQLenPdf::23                  65517                       # What write queue length does an incoming req see
system.mem_ctrls.wrQLenPdf::24                  65520                       # What write queue length does an incoming req see
system.mem_ctrls.wrQLenPdf::25                  65547                       # What write queue length does an incoming req see
system.mem_ctrls.wrQLenPdf::26                  65539                       # What write queue length does an incoming req see
system.mem_ctrls.wrQLenPdf::27                  65596                       # What write queue length does an incoming req see
system.mem_ctrls.wrQLenPdf::28                  65672                       # What write queue length does an incoming req see
system.mem_ctrls.wrQLenPdf::29                  65555                       # What write queue length does an incoming req see
system.mem_ctrls.wrQLenPdf::30                  65579                       # What write queue length does an incoming req see
system.mem_ctrls.wrQLenPdf::31                  65517                       # What write queue length does an incoming req see
system.mem_ctrls.wrQLenPdf::32                  65507                       # What write queue length does an incoming req see
system.mem_ctrls.wrQLenPdf::33                      4                       # What write queue length does an incoming req see
system.mem_ctrls.wrQLenPdf::34                      0                       # What write queue length does an incoming req see
system.mem_ctrls.wrQLenPdf::35                      0                       # What write queue length does an incoming req see
system.mem_ctrls.wrQLenPdf::36                      0                       # What write queue length does an incoming req see
system.mem_ctrls.wrQLenPdf::37                      0                       # What write queue length does an incoming req see
system.mem_ctrls.wrQLenPdf::38                      0                       # What write queue length does an incoming req see
system.mem_ctrls.wrQLenPdf::39                      0                       # What write queue length does an incoming req see
system.mem_ctrls.wrQLenPdf::40                      0                       # What write queue length does an incoming req see
system.mem_ctrls.wrQLenPdf::41                      0                       # What write queue length does an incoming req see
system.mem_ctrls.wrQLenPdf::42                      0                       # What write queue length does an incoming req see
system.mem_ctrls.wrQLenPdf::43                      0                       # What write queue length does an incoming req see
system.mem_ctrls.wrQLenPdf::44                      0                       # What write queue length does an incoming req see
system.mem_ctrls.wrQLenPdf::45                      0                       # What write queue length does an incoming req see
system.mem_ctrls.wrQLenPdf::46                      0                       # What write queue length does an incoming req see
system.mem_ctrls.wrQLenPdf::47                      0                       # What write queue length does an incoming req see
system.mem_ctrls.wrQLenPdf::48                      0                       # What write queue length does an incoming req see
system.mem_ctrls.wrQLenPdf::49                      0                       # What write queue length does an incoming req see
system.mem_ctrls.wrQLenPdf::50                      0                       # What write queue length does an incoming req see
system.mem_ctrls.wrQLenPdf::51                      0                       # What write queue length does an incoming req see
system.mem_ctrls.wrQLenPdf::52                      0                       # What write queue length does an incoming req see
system.mem_ctrls.wrQLenPdf::53                      0                       # What write queue length does an incoming req see
system.mem_ctrls.wrQLenPdf::54                      0                       # What write queue length does an incoming req see
system.mem_ctrls.wrQLenPdf::55                      0                       # What write queue length does an incoming req see
system.mem_ctrls.wrQLenPdf::56                      0                       # What write queue length does an incoming req see
system.mem_ctrls.wrQLenPdf::57                      0                       # What write queue length does an incoming req see
system.mem_ctrls.wrQLenPdf::58                      0                       # What write queue length does an incoming req see
system.mem_ctrls.wrQLenPdf::59                      0                       # What write queue length does an incoming req see
system.mem_ctrls.wrQLenPdf::60                      0                       # What write queue length does an incoming req see
system.mem_ctrls.wrQLenPdf::61                      0                       # What write queue length does an incoming req see
system.mem_ctrls.wrQLenPdf::62                      0                       # What write queue length does an incoming req see
system.mem_ctrls.wrQLenPdf::63                      0                       # What write queue length does an incoming req see
system.mem_ctrls.bytesPerActivate::samples      5821123                       # Bytes accessed per row activation
system.mem_ctrls.bytesPerActivate::mean     84.145028                       # Bytes accessed per row activation
system.mem_ctrls.bytesPerActivate::gmean    71.004407                       # Bytes accessed per row activation
system.mem_ctrls.bytesPerActivate::stdev   109.927735                       # Bytes accessed per row activation
system.mem_ctrls.bytesPerActivate::0-127      5298791     91.03%     91.03% # Bytes accessed per row activation
system.mem_ctrls.bytesPerActivate::128-255       383369      6.59%     97.61% # Bytes accessed per row activation
system.mem_ctrls.bytesPerActivate::256-383        31555      0.54%     98.15% # Bytes accessed per row activation
system.mem_ctrls.bytesPerActivate::384-511        14155      0.24%     98.40% # Bytes accessed per row activation
system.mem_ctrls.bytesPerActivate::512-639        10139      0.17%     98.57% # Bytes accessed per row activation
system.mem_ctrls.bytesPerActivate::640-767         9598      0.16%     98.74% # Bytes accessed per row activation
system.mem_ctrls.bytesPerActivate::768-895        12116      0.21%     98.95% # Bytes accessed per row activation
system.mem_ctrls.bytesPerActivate::896-1023         9791      0.17%     99.11% # Bytes accessed per row activation
system.mem_ctrls.bytesPerActivate::1024-1151        51609      0.89%    100.00% # Bytes accessed per row activation
system.mem_ctrls.bytesPerActivate::total      5821123                       # Bytes accessed per row activation
system.mem_ctrls.rdPerTurnAround::samples        65507                       # Reads before turning the bus around for writes
system.mem_ctrls.rdPerTurnAround::mean      99.800082                       # Reads before turning the bus around for writes
system.mem_ctrls.rdPerTurnAround::gmean     56.383253                       # Reads before turning the bus around for writes
system.mem_ctrls.rdPerTurnAround::stdev    145.433521                       # Reads before turning the bus around for writes
system.mem_ctrls.rdPerTurnAround::0-255         57747     88.15%     88.15% # Reads before turning the bus around for writes
system.mem_ctrls.rdPerTurnAround::256-511         6972     10.64%     98.80% # Reads before turning the bus around for writes
system.mem_ctrls.rdPerTurnAround::512-767          424      0.65%     99.44% # Reads before turning the bus around for writes
system.mem_ctrls.rdPerTurnAround::768-1023          177      0.27%     99.71% # Reads before turning the bus around for writes
system.mem_ctrls.rdPerTurnAround::1024-1279           79      0.12%     99.84% # Reads before turning the bus around for writes
system.mem_ctrls.rdPerTurnAround::1280-1535           45      0.07%     99.90% # Reads before turning the bus around for writes
system.mem_ctrls.rdPerTurnAround::1536-1791           16      0.02%     99.93% # Reads before turning the bus around for writes
system.mem_ctrls.rdPerTurnAround::1792-2047           21      0.03%     99.96% # Reads before turning the bus around for writes
system.mem_ctrls.rdPerTurnAround::2048-2303           10      0.02%     99.98% # Reads before turning the bus around for writes
system.mem_ctrls.rdPerTurnAround::2304-2559            6      0.01%     99.98% # Reads before turning the bus around for writes
system.mem_ctrls.rdPerTurnAround::2560-2815            2      0.00%     99.99% # Reads before turning the bus around for writes
system.mem_ctrls.rdPerTurnAround::2816-3071            2      0.00%     99.99% # Reads before turning the bus around for writes
system.mem_ctrls.rdPerTurnAround::3072-3327            2      0.00%     99.99% # Reads before turning the bus around for writes
system.mem_ctrls.rdPerTurnAround::3328-3583            1      0.00%    100.00% # Reads before turning the bus around for writes
system.mem_ctrls.rdPerTurnAround::3840-4095            1      0.00%    100.00% # Reads before turning the bus around for writes
system.mem_ctrls.rdPerTurnAround::4352-4607            1      0.00%    100.00% # Reads before turning the bus around for writes
system.mem_ctrls.rdPerTurnAround::5120-5375            1      0.00%    100.00% # Reads before turning the bus around for writes
system.mem_ctrls.rdPerTurnAround::total         65507                       # Reads before turning the bus around for writes
system.mem_ctrls.wrPerTurnAround::samples        65507                       # Writes before turning the bus around for reads
system.mem_ctrls.wrPerTurnAround::mean      17.033279                       # Writes before turning the bus around for reads
system.mem_ctrls.wrPerTurnAround::gmean     17.003872                       # Writes before turning the bus around for reads
system.mem_ctrls.wrPerTurnAround::stdev      0.999965                       # Writes before turning the bus around for reads
system.mem_ctrls.wrPerTurnAround::16            31222     47.66%     47.66% # Writes before turning the bus around for reads
system.mem_ctrls.wrPerTurnAround::17             1348      2.06%     49.72% # Writes before turning the bus around for reads
system.mem_ctrls.wrPerTurnAround::18            32482     49.59%     99.31% # Writes before turning the bus around for reads
system.mem_ctrls.wrPerTurnAround::19              445      0.68%     99.98% # Writes before turning the bus around for reads
system.mem_ctrls.wrPerTurnAround::20               10      0.02%    100.00% # Writes before turning the bus around for reads
system.mem_ctrls.wrPerTurnAround::total         65507                       # Writes before turning the bus around for reads
system.mem_ctrls.totQLat                 149529273250                       # Total ticks spent queuing
system.mem_ctrls.totMemAccLat            272109573250                       # Total ticks spent from burst creation until serviced by the DRAM
system.mem_ctrls.totBusLat                32688080000                       # Total ticks spent in databus transfers
system.mem_ctrls.avgQLat                     22872.14                       # Average queueing delay per DRAM burst
system.mem_ctrls.avgBusLat                    5000.00                       # Average bus latency per DRAM burst
system.mem_ctrls.avgMemAccLat                41622.14                       # Average memory access latency per DRAM burst
system.mem_ctrls.avgRdBW                       257.49                       # Average DRAM read bandwidth in MiByte/s
system.mem_ctrls.avgWrBW                        43.95                       # Average achieved write bandwidth in MiByte/s
system.mem_ctrls.avgRdBWSys                    257.98                       # Average system read bandwidth in MiByte/s
system.mem_ctrls.avgWrBWSys                     43.95                       # Average system write bandwidth in MiByte/s
system.mem_ctrls.peakBW                      12800.00                       # Theoretical peak bandwidth in MiByte/s
system.mem_ctrls.busUtil                         2.35                       # Data bus utilization in percentage
system.mem_ctrls.busUtilRead                     2.01                       # Data bus utilization in percentage for reads
system.mem_ctrls.busUtilWrite                    0.34                       # Data bus utilization in percentage for writes
system.mem_ctrls.avgRdQLen                       1.00                       # Average read queue length when enqueuing
system.mem_ctrls.avgWrQLen                      24.86                       # Average write queue length when enqueuing
system.mem_ctrls.readRowHits                  1334403                       # Number of row buffer hits during reads
system.mem_ctrls.writeRowHits                  497889                       # Number of row buffer hits during writes
system.mem_ctrls.readRowHitRate                 20.41                       # Row buffer hit rate for reads
system.mem_ctrls.writeRowHitRate                44.62                       # Row buffer hit rate for writes
system.mem_ctrls.avgGap                     211969.17                       # Average gap between requests
system.mem_ctrls.pageHitRate                    23.94                       # Row buffer hit rate, read and write combined
system.mem_ctrls_0.actEnergy              21930834240                       # Energy for activate commands per rank (pJ)
system.mem_ctrls_0.preEnergy              11966229000                       # Energy for precharge commands per rank (pJ)
system.mem_ctrls_0.readEnergy             25389304200                       # Energy for read commands per rank (pJ)
system.mem_ctrls_0.writeEnergy             3633834960                       # Energy for write commands per rank (pJ)
system.mem_ctrls_0.refreshEnergy         106133929200                       # Energy for refresh commands per rank (pJ)
system.mem_ctrls_0.actBackEnergy         844299880200                       # Energy for active background per rank (pJ)
system.mem_ctrls_0.preBackEnergy         234357084000                       # Energy for precharge background per rank (pJ)
system.mem_ctrls_0.totalEnergy           1247711095800                       # Total energy per rank (pJ)
system.mem_ctrls_0.averagePower            767.845040                       # Core power per rank (mW)
system.mem_ctrls_0.memoryStateTime::IDLE 384762013500                       # Time in different power states
system.mem_ctrls_0.memoryStateTime::REF   54260700000                       # Time in different power states
system.mem_ctrls_0.memoryStateTime::PRE_PDN            0                       # Time in different power states
system.mem_ctrls_0.memoryStateTime::ACT  1185928990250                       # Time in different power states
system.mem_ctrls_0.memoryStateTime::ACT_PDN            0                       # Time in different power states
system.mem_ctrls_1.actEnergy              22076855640                       # Energy for activate commands per rank (pJ)
system.mem_ctrls_1.preEnergy              12045903375                       # Energy for precharge commands per rank (pJ)
system.mem_ctrls_1.readEnergy             25604100600                       # Energy for read commands per rank (pJ)
system.mem_ctrls_1.writeEnergy             3596542560                       # Energy for write commands per rank (pJ)
system.mem_ctrls_1.refreshEnergy         106133929200                       # Energy for refresh commands per rank (pJ)
system.mem_ctrls_1.actBackEnergy         844647580485                       # Energy for active background per rank (pJ)
system.mem_ctrls_1.preBackEnergy         234052083750                       # Energy for precharge background per rank (pJ)
system.mem_ctrls_1.totalEnergy           1248156995610                       # Total energy per rank (pJ)
system.mem_ctrls_1.averagePower            768.119448                       # Core power per rank (mW)
system.mem_ctrls_1.memoryStateTime::IDLE 383902721000                       # Time in different power states
system.mem_ctrls_1.memoryStateTime::REF   54260700000                       # Time in different power states
system.mem_ctrls_1.memoryStateTime::PRE_PDN            0                       # Time in different power states
system.mem_ctrls_1.memoryStateTime::ACT  1186788282750                       # Time in different power states
system.mem_ctrls_1.memoryStateTime::ACT_PDN            0                       # Time in different power states
system.cpu_voltage_domain.voltage                   1                       # Voltage in Volts
system.cpu_clk_domain.clock                       500                       # Clock period in ticks
system.cpu.apic_clk_domain.clock                 8000                       # Clock period in ticks
system.cpu.workload.num_syscalls                  168                       # Number of system calls
system.cpu.numCycles                       3249908131                       # number of cpu cycles simulated
system.cpu.numWorkItemsStarted                      0                       # number of work items this cpu started
system.cpu.numWorkItemsCompleted                    0                       # number of work items this cpu completed
system.cpu.committedInsts                   500000000                       # Number of instructions committed
system.cpu.committedOps                     876313791                       # Number of ops (including micro ops) committed
system.cpu.num_int_alu_accesses             872966650                       # Number of integer alu accesses
system.cpu.num_fp_alu_accesses                2882295                       # Number of float alu accesses
system.cpu.num_func_calls                    11025254                       # number of times a function call or return occured
system.cpu.num_conditional_control_insts     75981001                       # number of instructions that are conditional controls
system.cpu.num_int_insts                    872966650                       # number of integer instructions
system.cpu.num_fp_insts                       2882295                       # number of float instructions
system.cpu.num_int_register_reads          1835046799                       # number of times the integer registers were read
system.cpu.num_int_register_writes          703076403                       # number of times the integer registers were written
system.cpu.num_fp_register_reads              4386181                       # number of times the floating registers were read
system.cpu.num_fp_register_writes             2464451                       # number of times the floating registers were written
system.cpu.num_cc_register_reads            441654653                       # number of times the CC registers were read
system.cpu.num_cc_register_writes           253505530                       # number of times the CC registers were written
system.cpu.num_mem_refs                     293763540                       # number of memory refs
system.cpu.num_load_insts                   221284996                       # Number of load instructions
system.cpu.num_store_insts                   72478544                       # Number of store instructions
system.cpu.num_idle_cycles                          0                       # Number of idle cycles
system.cpu.num_busy_cycles                 3249908131                       # Number of busy cycles
system.cpu.not_idle_fraction                        1                       # Percentage of non-idle cycles
system.cpu.idle_fraction                            0                       # Percentage of idle cycles
system.cpu.Branches                          97900991                       # Number of branches fetched
system.cpu.op_class::No_OpClass                939429      0.11%      0.11% # Class of executed instruction
system.cpu.op_class::IntAlu                 578420275     66.01%     66.11% # Class of executed instruction
system.cpu.op_class::IntMult                   907073      0.10%     66.22% # Class of executed instruction
system.cpu.op_class::IntDiv                        42      0.00%     66.22% # Class of executed instruction
system.cpu.op_class::FloatAdd                 2283432      0.26%     66.48% # Class of executed instruction
system.cpu.op_class::FloatCmp                       0      0.00%     66.48% # Class of executed instruction
system.cpu.op_class::FloatCvt                       0      0.00%     66.48% # Class of executed instruction
system.cpu.op_class::FloatMult                      0      0.00%     66.48% # Class of executed instruction
system.cpu.op_class::FloatDiv                       0      0.00%     66.48% # Class of executed instruction
system.cpu.op_class::FloatSqrt                      0      0.00%     66.48% # Class of executed instruction
system.cpu.op_class::SimdAdd                        0      0.00%     66.48% # Class of executed instruction
system.cpu.op_class::SimdAddAcc                     0      0.00%     66.48% # Class of executed instruction
system.cpu.op_class::SimdAlu                        0      0.00%     66.48% # Class of executed instruction
system.cpu.op_class::SimdCmp                        0      0.00%     66.48% # Class of executed instruction
system.cpu.op_class::SimdCvt                        0      0.00%     66.48% # Class of executed instruction
system.cpu.op_class::SimdMisc                       0      0.00%     66.48% # Class of executed instruction
system.cpu.op_class::SimdMult                       0      0.00%     66.48% # Class of executed instruction
system.cpu.op_class::SimdMultAcc                    0      0.00%     66.48% # Class of executed instruction
system.cpu.op_class::SimdShift                      0      0.00%     66.48% # Class of executed instruction
system.cpu.op_class::SimdShiftAcc                   0      0.00%     66.48% # Class of executed instruction
system.cpu.op_class::SimdSqrt                       0      0.00%     66.48% # Class of executed instruction
system.cpu.op_class::SimdFloatAdd                   0      0.00%     66.48% # Class of executed instruction
system.cpu.op_class::SimdFloatAlu                   0      0.00%     66.48% # Class of executed instruction
system.cpu.op_class::SimdFloatCmp                   0      0.00%     66.48% # Class of executed instruction
system.cpu.op_class::SimdFloatCvt                   0      0.00%     66.48% # Class of executed instruction
system.cpu.op_class::SimdFloatDiv                   0      0.00%     66.48% # Class of executed instruction
system.cpu.op_class::SimdFloatMisc                  0      0.00%     66.48% # Class of executed instruction
system.cpu.op_class::SimdFloatMult                  0      0.00%     66.48% # Class of executed instruction
system.cpu.op_class::SimdFloatMultAcc               0      0.00%     66.48% # Class of executed instruction
system.cpu.op_class::SimdFloatSqrt                  0      0.00%     66.48% # Class of executed instruction
system.cpu.op_class::MemRead                221284996     25.25%     91.73% # Class of executed instruction
system.cpu.op_class::MemWrite                72478544      8.27%    100.00% # Class of executed instruction
system.cpu.op_class::IprAccess                      0      0.00%    100.00% # Class of executed instruction
system.cpu.op_class::InstPrefetch                   0      0.00%    100.00% # Class of executed instruction
system.cpu.op_class::total                  876313791                       # Class of executed instruction
system.cpu.dcache.tags.replacements          10214979                       # number of replacements
system.cpu.dcache.tags.tagsinuse          2047.309055                       # Cycle average of tags in use
system.cpu.dcache.tags.total_refs           283566706                       # Total number of references to valid blocks.
system.cpu.dcache.tags.sampled_refs          10217027                       # Sample count of references to valid blocks.
system.cpu.dcache.tags.avg_refs             27.754327                       # Average number of references to valid blocks.
system.cpu.dcache.tags.warmup_cycle        1262801500                       # Cycle when the warmup percentage was hit.
system.cpu.dcache.tags.occ_blocks::cpu.data  2047.309055                       # Average occupied blocks per requestor
system.cpu.dcache.tags.occ_percent::cpu.data     0.999663                       # Average percentage of cache occupancy
system.cpu.dcache.tags.occ_percent::total     0.999663                       # Average percentage of cache occupancy
system.cpu.dcache.tags.occ_task_id_blocks::1024         2048                       # Occupied blocks per task id
system.cpu.dcache.tags.age_task_id_blocks_1024::0            1                       # Occupied blocks per task id
system.cpu.dcache.tags.age_task_id_blocks_1024::1          607                       # Occupied blocks per task id
system.cpu.dcache.tags.age_task_id_blocks_1024::2         1247                       # Occupied blocks per task id
system.cpu.dcache.tags.age_task_id_blocks_1024::3          190                       # Occupied blocks per task id
system.cpu.dcache.tags.age_task_id_blocks_1024::4            3                       # Occupied blocks per task id
system.cpu.dcache.tags.occ_task_id_percent::1024            1                       # Percentage of cache occupancy per task id
system.cpu.dcache.tags.tag_accesses         597784493                       # Number of tag accesses
system.cpu.dcache.tags.data_accesses        597784493                       # Number of data accesses
system.cpu.dcache.ReadReq_hits::cpu.data    211420403                       # number of ReadReq hits
system.cpu.dcache.ReadReq_hits::total       211420403                       # number of ReadReq hits
system.cpu.dcache.WriteReq_hits::cpu.data     72146303                       # number of WriteReq hits
system.cpu.dcache.WriteReq_hits::total       72146303                       # number of WriteReq hits
system.cpu.dcache.demand_hits::cpu.data     283566706                       # number of demand (read+write) hits
system.cpu.dcache.demand_hits::total        283566706                       # number of demand (read+write) hits
system.cpu.dcache.overall_hits::cpu.data    283566706                       # number of overall hits
system.cpu.dcache.overall_hits::total       283566706                       # number of overall hits
system.cpu.dcache.ReadReq_misses::cpu.data      9878722                       # number of ReadReq misses
system.cpu.dcache.ReadReq_misses::total       9878722                       # number of ReadReq misses
system.cpu.dcache.WriteReq_misses::cpu.data       338305                       # number of WriteReq misses
system.cpu.dcache.WriteReq_misses::total       338305                       # number of WriteReq misses
system.cpu.dcache.demand_misses::cpu.data     10217027                       # number of demand (read+write) misses
system.cpu.dcache.demand_misses::total       10217027                       # number of demand (read+write) misses
system.cpu.dcache.overall_misses::cpu.data     10217027                       # number of overall misses
system.cpu.dcache.overall_misses::total      10217027                       # number of overall misses
system.cpu.dcache.ReadReq_miss_latency::cpu.data 644984527500                       # number of ReadReq miss cycles
system.cpu.dcache.ReadReq_miss_latency::total 644984527500                       # number of ReadReq miss cycles
system.cpu.dcache.WriteReq_miss_latency::cpu.data  19027544500                       # number of WriteReq miss cycles
system.cpu.dcache.WriteReq_miss_latency::total  19027544500                       # number of WriteReq miss cycles
system.cpu.dcache.demand_miss_latency::cpu.data 664012072000                       # number of demand (read+write) miss cycles
system.cpu.dcache.demand_miss_latency::total 664012072000                       # number of demand (read+write) miss cycles
system.cpu.dcache.overall_miss_latency::cpu.data 664012072000                       # number of overall miss cycles
system.cpu.dcache.overall_miss_latency::total 664012072000                       # number of overall miss cycles
system.cpu.dcache.ReadReq_accesses::cpu.data    221299125                       # number of ReadReq accesses(hits+misses)
system.cpu.dcache.ReadReq_accesses::total    221299125                       # number of ReadReq accesses(hits+misses)
system.cpu.dcache.WriteReq_accesses::cpu.data     72484608                       # number of WriteReq accesses(hits+misses)
system.cpu.dcache.WriteReq_accesses::total     72484608                       # number of WriteReq accesses(hits+misses)
system.cpu.dcache.demand_accesses::cpu.data    293783733                       # number of demand (read+write) accesses
system.cpu.dcache.demand_accesses::total    293783733                       # number of demand (read+write) accesses
system.cpu.dcache.overall_accesses::cpu.data    293783733                       # number of overall (read+write) accesses
system.cpu.dcache.overall_accesses::total    293783733                       # number of overall (read+write) accesses
system.cpu.dcache.ReadReq_miss_rate::cpu.data     0.044640                       # miss rate for ReadReq accesses
system.cpu.dcache.ReadReq_miss_rate::total     0.044640                       # miss rate for ReadReq accesses
system.cpu.dcache.WriteReq_miss_rate::cpu.data     0.004667                       # miss rate for WriteReq accesses
system.cpu.dcache.WriteReq_miss_rate::total     0.004667                       # miss rate for WriteReq accesses
system.cpu.dcache.demand_miss_rate::cpu.data     0.034777                       # miss rate for demand accesses
system.cpu.dcache.demand_miss_rate::total     0.034777                       # miss rate for demand accesses
system.cpu.dcache.overall_miss_rate::cpu.data     0.034777                       # miss rate for overall accesses
system.cpu.dcache.overall_miss_rate::total     0.034777                       # miss rate for overall accesses
system.cpu.dcache.ReadReq_avg_miss_latency::cpu.data 65290.280210                       # average ReadReq miss latency
system.cpu.dcache.ReadReq_avg_miss_latency::total 65290.280210                       # average ReadReq miss latency
system.cpu.dcache.WriteReq_avg_miss_latency::cpu.data 56243.757852                       # average WriteReq miss latency
system.cpu.dcache.WriteReq_avg_miss_latency::total 56243.757852                       # average WriteReq miss latency
system.cpu.dcache.demand_avg_miss_latency::cpu.data 64990.732823                       # average overall miss latency
system.cpu.dcache.demand_avg_miss_latency::total 64990.732823                       # average overall miss latency
system.cpu.dcache.overall_avg_miss_latency::cpu.data 64990.732823                       # average overall miss latency
system.cpu.dcache.overall_avg_miss_latency::total 64990.732823                       # average overall miss latency
system.cpu.dcache.blocked_cycles::no_mshrs            0                       # number of cycles access was blocked
system.cpu.dcache.blocked_cycles::no_targets            0                       # number of cycles access was blocked
system.cpu.dcache.blocked::no_mshrs                 0                       # number of cycles access was blocked
system.cpu.dcache.blocked::no_targets               0                       # number of cycles access was blocked
system.cpu.dcache.avg_blocked_cycles::no_mshrs          nan                       # average number of cycles each access was blocked
system.cpu.dcache.avg_blocked_cycles::no_targets          nan                       # average number of cycles each access was blocked
system.cpu.dcache.fast_writes                       0                       # number of fast writes performed
system.cpu.dcache.cache_copies                      0                       # number of cache copies performed
system.cpu.dcache.writebacks::writebacks      2502081                       # number of writebacks
system.cpu.dcache.writebacks::total           2502081                       # number of writebacks
system.cpu.dcache.ReadReq_mshr_misses::cpu.data      9878722                       # number of ReadReq MSHR misses
system.cpu.dcache.ReadReq_mshr_misses::total      9878722                       # number of ReadReq MSHR misses
system.cpu.dcache.WriteReq_mshr_misses::cpu.data       338305                       # number of WriteReq MSHR misses
system.cpu.dcache.WriteReq_mshr_misses::total       338305                       # number of WriteReq MSHR misses
system.cpu.dcache.demand_mshr_misses::cpu.data     10217027                       # number of demand (read+write) MSHR misses
system.cpu.dcache.demand_mshr_misses::total     10217027                       # number of demand (read+write) MSHR misses
system.cpu.dcache.overall_mshr_misses::cpu.data     10217027                       # number of overall MSHR misses
system.cpu.dcache.overall_mshr_misses::total     10217027                       # number of overall MSHR misses
system.cpu.dcache.ReadReq_mshr_miss_latency::cpu.data 635105805500                       # number of ReadReq MSHR miss cycles
system.cpu.dcache.ReadReq_mshr_miss_latency::total 635105805500                       # number of ReadReq MSHR miss cycles
system.cpu.dcache.WriteReq_mshr_miss_latency::cpu.data  18689239500                       # number of WriteReq MSHR miss cycles
system.cpu.dcache.WriteReq_mshr_miss_latency::total  18689239500                       # number of WriteReq MSHR miss cycles
system.cpu.dcache.demand_mshr_miss_latency::cpu.data 653795045000                       # number of demand (read+write) MSHR miss cycles
system.cpu.dcache.demand_mshr_miss_latency::total 653795045000                       # number of demand (read+write) MSHR miss cycles
system.cpu.dcache.overall_mshr_miss_latency::cpu.data 653795045000                       # number of overall MSHR miss cycles
system.cpu.dcache.overall_mshr_miss_latency::total 653795045000                       # number of overall MSHR miss cycles
system.cpu.dcache.ReadReq_mshr_miss_rate::cpu.data     0.044640                       # mshr miss rate for ReadReq accesses
system.cpu.dcache.ReadReq_mshr_miss_rate::total     0.044640                       # mshr miss rate for ReadReq accesses
system.cpu.dcache.WriteReq_mshr_miss_rate::cpu.data     0.004667                       # mshr miss rate for WriteReq accesses
system.cpu.dcache.WriteReq_mshr_miss_rate::total     0.004667                       # mshr miss rate for WriteReq accesses
system.cpu.dcache.demand_mshr_miss_rate::cpu.data     0.034777                       # mshr miss rate for demand accesses
system.cpu.dcache.demand_mshr_miss_rate::total     0.034777                       # mshr miss rate for demand accesses
system.cpu.dcache.overall_mshr_miss_rate::cpu.data     0.034777                       # mshr miss rate for overall accesses
system.cpu.dcache.overall_mshr_miss_rate::total     0.034777                       # mshr miss rate for overall accesses
system.cpu.dcache.ReadReq_avg_mshr_miss_latency::cpu.data 64290.280210                       # average ReadReq mshr miss latency
system.cpu.dcache.ReadReq_avg_mshr_miss_latency::total 64290.280210                       # average ReadReq mshr miss latency
system.cpu.dcache.WriteReq_avg_mshr_miss_latency::cpu.data 55243.757852                       # average WriteReq mshr miss latency
system.cpu.dcache.WriteReq_avg_mshr_miss_latency::total 55243.757852                       # average WriteReq mshr miss latency
system.cpu.dcache.demand_avg_mshr_miss_latency::cpu.data 63990.732823                       # average overall mshr miss latency
system.cpu.dcache.demand_avg_mshr_miss_latency::total 63990.732823                       # average overall mshr miss latency
system.cpu.dcache.overall_avg_mshr_miss_latency::cpu.data 63990.732823                       # average overall mshr miss latency
system.cpu.dcache.overall_avg_mshr_miss_latency::total 63990.732823                       # average overall mshr miss latency
system.cpu.dcache.no_allocate_misses                0                       # Number of misses that were no-allocate
system.cpu.dtb_walker_cache.tags.replacements            0                       # number of replacements
system.cpu.dtb_walker_cache.tags.tagsinuse            0                       # Cycle average of tags in use
system.cpu.dtb_walker_cache.tags.total_refs            0                       # Total number of references to valid blocks.
system.cpu.dtb_walker_cache.tags.sampled_refs            0                       # Sample count of references to valid blocks.
system.cpu.dtb_walker_cache.tags.avg_refs          nan                       # Average number of references to valid blocks.
system.cpu.dtb_walker_cache.tags.warmup_cycle            0                       # Cycle when the warmup percentage was hit.
system.cpu.dtb_walker_cache.tags.tag_accesses            0                       # Number of tag accesses
system.cpu.dtb_walker_cache.tags.data_accesses            0                       # Number of data accesses
system.cpu.dtb_walker_cache.blocked_cycles::no_mshrs            0                       # number of cycles access was blocked
system.cpu.dtb_walker_cache.blocked_cycles::no_targets            0                       # number of cycles access was blocked
system.cpu.dtb_walker_cache.blocked::no_mshrs            0                       # number of cycles access was blocked
system.cpu.dtb_walker_cache.blocked::no_targets            0                       # number of cycles access was blocked
system.cpu.dtb_walker_cache.avg_blocked_cycles::no_mshrs          nan                       # average number of cycles each access was blocked
system.cpu.dtb_walker_cache.avg_blocked_cycles::no_targets          nan                       # average number of cycles each access was blocked
system.cpu.dtb_walker_cache.fast_writes             0                       # number of fast writes performed
system.cpu.dtb_walker_cache.cache_copies            0                       # number of cache copies performed
system.cpu.dtb_walker_cache.no_allocate_misses            0                       # Number of misses that were no-allocate
system.cpu.icache.tags.replacements              1084                       # number of replacements
system.cpu.icache.tags.tagsinuse           431.049990                       # Cycle average of tags in use
system.cpu.icache.tags.total_refs           677316408                       # Total number of references to valid blocks.
system.cpu.icache.tags.sampled_refs              1526                       # Sample count of references to valid blocks.
system.cpu.icache.tags.avg_refs          443850.857143                       # Average number of references to valid blocks.
system.cpu.icache.tags.warmup_cycle                 0                       # Cycle when the warmup percentage was hit.
system.cpu.icache.tags.occ_blocks::cpu.inst   431.049990                       # Average occupied blocks per requestor
system.cpu.icache.tags.occ_percent::cpu.inst     0.841895                       # Average percentage of cache occupancy
system.cpu.icache.tags.occ_percent::total     0.841895                       # Average percentage of cache occupancy
system.cpu.icache.tags.occ_task_id_blocks::1024          442                       # Occupied blocks per task id
system.cpu.icache.tags.age_task_id_blocks_1024::4          442                       # Occupied blocks per task id
system.cpu.icache.tags.occ_task_id_percent::1024     0.863281                       # Percentage of cache occupancy per task id
system.cpu.icache.tags.tag_accesses        1354637394                       # Number of tag accesses
system.cpu.icache.tags.data_accesses       1354637394                       # Number of data accesses
system.cpu.icache.ReadReq_hits::cpu.inst    677316408                       # number of ReadReq hits
system.cpu.icache.ReadReq_hits::total       677316408                       # number of ReadReq hits
system.cpu.icache.demand_hits::cpu.inst     677316408                       # number of demand (read+write) hits
system.cpu.icache.demand_hits::total        677316408                       # number of demand (read+write) hits
system.cpu.icache.overall_hits::cpu.inst    677316408                       # number of overall hits
system.cpu.icache.overall_hits::total       677316408                       # number of overall hits
system.cpu.icache.ReadReq_misses::cpu.inst         1526                       # number of ReadReq misses
system.cpu.icache.ReadReq_misses::total          1526                       # number of ReadReq misses
system.cpu.icache.demand_misses::cpu.inst         1526                       # number of demand (read+write) misses
system.cpu.icache.demand_misses::total           1526                       # number of demand (read+write) misses
system.cpu.icache.overall_misses::cpu.inst         1526                       # number of overall misses
system.cpu.icache.overall_misses::total          1526                       # number of overall misses
system.cpu.icache.ReadReq_miss_latency::cpu.inst     68987500                       # number of ReadReq miss cycles
system.cpu.icache.ReadReq_miss_latency::total     68987500                       # number of ReadReq miss cycles
system.cpu.icache.demand_miss_latency::cpu.inst     68987500                       # number of demand (read+write) miss cycles
system.cpu.icache.demand_miss_latency::total     68987500                       # number of demand (read+write) miss cycles
system.cpu.icache.overall_miss_latency::cpu.inst     68987500                       # number of overall miss cycles
system.cpu.icache.overall_miss_latency::total     68987500                       # number of overall miss cycles
system.cpu.icache.ReadReq_accesses::cpu.inst    677317934                       # number of ReadReq accesses(hits+misses)
system.cpu.icache.ReadReq_accesses::total    677317934                       # number of ReadReq accesses(hits+misses)
system.cpu.icache.demand_accesses::cpu.inst    677317934                       # number of demand (read+write) accesses
system.cpu.icache.demand_accesses::total    677317934                       # number of demand (read+write) accesses
system.cpu.icache.overall_accesses::cpu.inst    677317934                       # number of overall (read+write) accesses
system.cpu.icache.overall_accesses::total    677317934                       # number of overall (read+write) accesses
system.cpu.icache.ReadReq_miss_rate::cpu.inst     0.000002                       # miss rate for ReadReq accesses
system.cpu.icache.ReadReq_miss_rate::total     0.000002                       # miss rate for ReadReq accesses
system.cpu.icache.demand_miss_rate::cpu.inst     0.000002                       # miss rate for demand accesses
system.cpu.icache.demand_miss_rate::total     0.000002                       # miss rate for demand accesses
system.cpu.icache.overall_miss_rate::cpu.inst     0.000002                       # miss rate for overall accesses
system.cpu.icache.overall_miss_rate::total     0.000002                       # miss rate for overall accesses
system.cpu.icache.ReadReq_avg_miss_latency::cpu.inst 45208.060288                       # average ReadReq miss latency
system.cpu.icache.ReadReq_avg_miss_latency::total 45208.060288                       # average ReadReq miss latency
system.cpu.icache.demand_avg_miss_latency::cpu.inst 45208.060288                       # average overall miss latency
system.cpu.icache.demand_avg_miss_latency::total 45208.060288                       # average overall miss latency
system.cpu.icache.overall_avg_miss_latency::cpu.inst 45208.060288                       # average overall miss latency
system.cpu.icache.overall_avg_miss_latency::total 45208.060288                       # average overall miss latency
system.cpu.icache.blocked_cycles::no_mshrs            0                       # number of cycles access was blocked
system.cpu.icache.blocked_cycles::no_targets            0                       # number of cycles access was blocked
system.cpu.icache.blocked::no_mshrs                 0                       # number of cycles access was blocked
system.cpu.icache.blocked::no_targets               0                       # number of cycles access was blocked
system.cpu.icache.avg_blocked_cycles::no_mshrs          nan                       # average number of cycles each access was blocked
system.cpu.icache.avg_blocked_cycles::no_targets          nan                       # average number of cycles each access was blocked
system.cpu.icache.fast_writes                       0                       # number of fast writes performed
system.cpu.icache.cache_copies                      0                       # number of cache copies performed
system.cpu.icache.writebacks::writebacks         1084                       # number of writebacks
system.cpu.icache.writebacks::total              1084                       # number of writebacks
system.cpu.icache.ReadReq_mshr_misses::cpu.inst         1526                       # number of ReadReq MSHR misses
system.cpu.icache.ReadReq_mshr_misses::total         1526                       # number of ReadReq MSHR misses
system.cpu.icache.demand_mshr_misses::cpu.inst         1526                       # number of demand (read+write) MSHR misses
system.cpu.icache.demand_mshr_misses::total         1526                       # number of demand (read+write) MSHR misses
system.cpu.icache.overall_mshr_misses::cpu.inst         1526                       # number of overall MSHR misses
system.cpu.icache.overall_mshr_misses::total         1526                       # number of overall MSHR misses
system.cpu.icache.ReadReq_mshr_miss_latency::cpu.inst     67461500                       # number of ReadReq MSHR miss cycles
system.cpu.icache.ReadReq_mshr_miss_latency::total     67461500                       # number of ReadReq MSHR miss cycles
system.cpu.icache.demand_mshr_miss_latency::cpu.inst     67461500                       # number of demand (read+write) MSHR miss cycles
system.cpu.icache.demand_mshr_miss_latency::total     67461500                       # number of demand (read+write) MSHR miss cycles
system.cpu.icache.overall_mshr_miss_latency::cpu.inst     67461500                       # number of overall MSHR miss cycles
system.cpu.icache.overall_mshr_miss_latency::total     67461500                       # number of overall MSHR miss cycles
system.cpu.icache.ReadReq_mshr_miss_rate::cpu.inst     0.000002                       # mshr miss rate for ReadReq accesses
system.cpu.icache.ReadReq_mshr_miss_rate::total     0.000002                       # mshr miss rate for ReadReq accesses
system.cpu.icache.demand_mshr_miss_rate::cpu.inst     0.000002                       # mshr miss rate for demand accesses
system.cpu.icache.demand_mshr_miss_rate::total     0.000002                       # mshr miss rate for demand accesses
system.cpu.icache.overall_mshr_miss_rate::cpu.inst     0.000002                       # mshr miss rate for overall accesses
system.cpu.icache.overall_mshr_miss_rate::total     0.000002                       # mshr miss rate for overall accesses
system.cpu.icache.ReadReq_avg_mshr_miss_latency::cpu.inst 44208.060288                       # average ReadReq mshr miss latency
system.cpu.icache.ReadReq_avg_mshr_miss_latency::total 44208.060288                       # average ReadReq mshr miss latency
system.cpu.icache.demand_avg_mshr_miss_latency::cpu.inst 44208.060288                       # average overall mshr miss latency
system.cpu.icache.demand_avg_mshr_miss_latency::total 44208.060288                       # average overall mshr miss latency
system.cpu.icache.overall_avg_mshr_miss_latency::cpu.inst 44208.060288                       # average overall mshr miss latency
system.cpu.icache.overall_avg_mshr_miss_latency::total 44208.060288                       # average overall mshr miss latency
system.cpu.icache.no_allocate_misses                0                       # Number of misses that were no-allocate
system.cpu.itb_walker_cache.tags.replacements            0                       # number of replacements
system.cpu.itb_walker_cache.tags.tagsinuse            0                       # Cycle average of tags in use
system.cpu.itb_walker_cache.tags.total_refs            0                       # Total number of references to valid blocks.
system.cpu.itb_walker_cache.tags.sampled_refs            0                       # Sample count of references to valid blocks.
system.cpu.itb_walker_cache.tags.avg_refs          nan                       # Average number of references to valid blocks.
system.cpu.itb_walker_cache.tags.warmup_cycle            0                       # Cycle when the warmup percentage was hit.
system.cpu.itb_walker_cache.tags.tag_accesses            0                       # Number of tag accesses
system.cpu.itb_walker_cache.tags.data_accesses            0                       # Number of data accesses
system.cpu.itb_walker_cache.blocked_cycles::no_mshrs            0                       # number of cycles access was blocked
system.cpu.itb_walker_cache.blocked_cycles::no_targets            0                       # number of cycles access was blocked
system.cpu.itb_walker_cache.blocked::no_mshrs            0                       # number of cycles access was blocked
system.cpu.itb_walker_cache.blocked::no_targets            0                       # number of cycles access was blocked
system.cpu.itb_walker_cache.avg_blocked_cycles::no_mshrs          nan                       # average number of cycles each access was blocked
system.cpu.itb_walker_cache.avg_blocked_cycles::no_targets          nan                       # average number of cycles each access was blocked
system.cpu.itb_walker_cache.fast_writes             0                       # number of fast writes performed
system.cpu.itb_walker_cache.cache_copies            0                       # number of cache copies performed
system.cpu.itb_walker_cache.no_allocate_misses            0                       # Number of misses that were no-allocate
system.l2.tags.replacements                   6715166                       # number of replacements
system.l2.tags.tagsinuse                 15987.464367                       # Cycle average of tags in use
system.l2.tags.total_refs                    12653025                       # Total number of references to valid blocks.
system.l2.tags.sampled_refs                   6731496                       # Sample count of references to valid blocks.
system.l2.tags.avg_refs                      1.879675                       # Average number of references to valid blocks.
system.l2.tags.warmup_cycle              330313040500                       # Cycle when the warmup percentage was hit.
system.l2.tags.occ_blocks::writebacks     3316.629902                       # Average occupied blocks per requestor
system.l2.tags.occ_blocks::cpu.inst          2.012942                       # Average occupied blocks per requestor
system.l2.tags.occ_blocks::cpu.data      12668.821524                       # Average occupied blocks per requestor
system.l2.tags.occ_percent::writebacks       0.202431                       # Average percentage of cache occupancy
system.l2.tags.occ_percent::cpu.inst         0.000123                       # Average percentage of cache occupancy
system.l2.tags.occ_percent::cpu.data         0.773244                       # Average percentage of cache occupancy
system.l2.tags.occ_percent::total            0.975797                       # Average percentage of cache occupancy
system.l2.tags.occ_task_id_blocks::1024         16330                       # Occupied blocks per task id
system.l2.tags.age_task_id_blocks_1024::1          402                       # Occupied blocks per task id
system.l2.tags.age_task_id_blocks_1024::2         3328                       # Occupied blocks per task id
system.l2.tags.age_task_id_blocks_1024::3         9645                       # Occupied blocks per task id
system.l2.tags.age_task_id_blocks_1024::4         2955                       # Occupied blocks per task id
system.l2.tags.occ_task_id_percent::1024     0.996704                       # Percentage of cache occupancy per task id
system.l2.tags.tag_accesses                  27504416                       # Number of tag accesses
system.l2.tags.data_accesses                 27504416                       # Number of data accesses
system.l2.WritebackDirty_hits::writebacks      2502081                       # number of WritebackDirty hits
system.l2.WritebackDirty_hits::total          2502081                       # number of WritebackDirty hits
system.l2.WritebackClean_hits::writebacks         1083                       # number of WritebackClean hits
system.l2.WritebackClean_hits::total             1083                       # number of WritebackClean hits
system.l2.ReadExReq_hits::cpu.data             128632                       # number of ReadExReq hits
system.l2.ReadExReq_hits::total                128632                       # number of ReadExReq hits
system.l2.ReadCleanReq_hits::cpu.inst             807                       # number of ReadCleanReq hits
system.l2.ReadCleanReq_hits::total                807                       # number of ReadCleanReq hits
system.l2.ReadSharedReq_hits::cpu.data        3539095                       # number of ReadSharedReq hits
system.l2.ReadSharedReq_hits::total           3539095                       # number of ReadSharedReq hits
system.l2.demand_hits::cpu.inst                   807                       # number of demand (read+write) hits
system.l2.demand_hits::cpu.data               3667727                       # number of demand (read+write) hits
system.l2.demand_hits::total                  3668534                       # number of demand (read+write) hits
system.l2.overall_hits::cpu.inst                  807                       # number of overall hits
system.l2.overall_hits::cpu.data              3667727                       # number of overall hits
system.l2.overall_hits::total                 3668534                       # number of overall hits
system.l2.ReadExReq_misses::cpu.data           209673                       # number of ReadExReq misses
system.l2.ReadExReq_misses::total              209673                       # number of ReadExReq misses
system.l2.ReadCleanReq_misses::cpu.inst           719                       # number of ReadCleanReq misses
system.l2.ReadCleanReq_misses::total              719                       # number of ReadCleanReq misses
system.l2.ReadSharedReq_misses::cpu.data      6339627                       # number of ReadSharedReq misses
system.l2.ReadSharedReq_misses::total         6339627                       # number of ReadSharedReq misses
system.l2.demand_misses::cpu.inst                 719                       # number of demand (read+write) misses
system.l2.demand_misses::cpu.data             6549300                       # number of demand (read+write) misses
system.l2.demand_misses::total                6550019                       # number of demand (read+write) misses
system.l2.overall_misses::cpu.inst                719                       # number of overall misses
system.l2.overall_misses::cpu.data            6549300                       # number of overall misses
system.l2.overall_misses::total               6550019                       # number of overall misses
system.l2.ReadExReq_miss_latency::cpu.data  16831143000                       # number of ReadExReq miss cycles
system.l2.ReadExReq_miss_latency::total   16831143000                       # number of ReadExReq miss cycles
system.l2.ReadCleanReq_miss_latency::cpu.inst     56693000                       # number of ReadCleanReq miss cycles
system.l2.ReadCleanReq_miss_latency::total     56693000                       # number of ReadCleanReq miss cycles
system.l2.ReadSharedReq_miss_latency::cpu.data 583127221000                       # number of ReadSharedReq miss cycles
system.l2.ReadSharedReq_miss_latency::total 583127221000                       # number of ReadSharedReq miss cycles
system.l2.demand_miss_latency::cpu.inst      56693000                       # number of demand (read+write) miss cycles
system.l2.demand_miss_latency::cpu.data  599958364000                       # number of demand (read+write) miss cycles
system.l2.demand_miss_latency::total     600015057000                       # number of demand (read+write) miss cycles
system.l2.overall_miss_latency::cpu.inst     56693000                       # number of overall miss cycles
system.l2.overall_miss_latency::cpu.data 599958364000                       # number of overall miss cycles
system.l2.overall_miss_latency::total    600015057000                       # number of overall miss cycles
system.l2.WritebackDirty_accesses::writebacks      2502081                       # number of WritebackDirty accesses(hits+misses)
system.l2.WritebackDirty_accesses::total      2502081                       # number of WritebackDirty accesses(hits+misses)
system.l2.WritebackClean_accesses::writebacks         1083                       # number of WritebackClean accesses(hits+misses)
system.l2.WritebackClean_accesses::total         1083                       # number of WritebackClean accesses(hits+misses)
system.l2.ReadExReq_accesses::cpu.data         338305                       # number of ReadExReq accesses(hits+misses)
system.l2.ReadExReq_accesses::total            338305                       # number of ReadExReq accesses(hits+misses)
system.l2.ReadCleanReq_accesses::cpu.inst         1526                       # number of ReadCleanReq accesses(hits+misses)
system.l2.ReadCleanReq_accesses::total           1526                       # number of ReadCleanReq accesses(hits+misses)
system.l2.ReadSharedReq_accesses::cpu.data      9878722                       # number of ReadSharedReq accesses(hits+misses)
system.l2.ReadSharedReq_accesses::total       9878722                       # number of ReadSharedReq accesses(hits+misses)
system.l2.demand_accesses::cpu.inst              1526                       # number of demand (read+write) accesses
system.l2.demand_accesses::cpu.data          10217027                       # number of demand (read+write) accesses
system.l2.demand_accesses::total             10218553                       # number of demand (read+write) accesses
system.l2.overall_accesses::cpu.inst             1526                       # number of overall (read+write) accesses
system.l2.overall_accesses::cpu.data         10217027                       # number of overall (read+write) accesses
system.l2.overall_accesses::total            10218553                       # number of overall (read+write) accesses
system.l2.ReadExReq_miss_rate::cpu.data      0.619775                       # miss rate for ReadExReq accesses
system.l2.ReadExReq_miss_rate::total         0.619775                       # miss rate for ReadExReq accesses
system.l2.ReadCleanReq_miss_rate::cpu.inst     0.471166                       # miss rate for ReadCleanReq accesses
system.l2.ReadCleanReq_miss_rate::total      0.471166                       # miss rate for ReadCleanReq accesses
system.l2.ReadSharedReq_miss_rate::cpu.data     0.641746                       # miss rate for ReadSharedReq accesses
system.l2.ReadSharedReq_miss_rate::total     0.641746                       # miss rate for ReadSharedReq accesses
system.l2.demand_miss_rate::cpu.inst         0.471166                       # miss rate for demand accesses
system.l2.demand_miss_rate::cpu.data         0.641018                       # miss rate for demand accesses
system.l2.demand_miss_rate::total            0.640993                       # miss rate for demand accesses
system.l2.overall_miss_rate::cpu.inst        0.471166                       # miss rate for overall accesses
system.l2.overall_miss_rate::cpu.data        0.641018                       # miss rate for overall accesses
system.l2.overall_miss_rate::total           0.640993                       # miss rate for overall accesses
system.l2.ReadExReq_avg_miss_latency::cpu.data 80273.296991                       # average ReadExReq miss latency
system.l2.ReadExReq_avg_miss_latency::total 80273.296991                       # average ReadExReq miss latency
system.l2.ReadCleanReq_avg_miss_latency::cpu.inst 78849.791377                       # average ReadCleanReq miss latency
system.l2.ReadCleanReq_avg_miss_latency::total 78849.791377                       # average ReadCleanReq miss latency
system.l2.ReadSharedReq_avg_miss_latency::cpu.data 91981.313885                       # average ReadSharedReq miss latency
system.l2.ReadSharedReq_avg_miss_latency::total 91981.313885                       # average ReadSharedReq miss latency
system.l2.demand_avg_miss_latency::cpu.inst 78849.791377                       # average overall miss latency
system.l2.demand_avg_miss_latency::cpu.data 91606.486800                       # average overall miss latency
system.l2.demand_avg_miss_latency::total 91605.086489                       # average overall miss latency
system.l2.overall_avg_miss_latency::cpu.inst 78849.791377                       # average overall miss latency
system.l2.overall_avg_miss_latency::cpu.data 91606.486800                       # average overall miss latency
system.l2.overall_avg_miss_latency::total 91605.086489                       # average overall miss latency
system.l2.blocked_cycles::no_mshrs                  0                       # number of cycles access was blocked
system.l2.blocked_cycles::no_targets                0                       # number of cycles access was blocked
system.l2.blocked::no_mshrs                         0                       # number of cycles access was blocked
system.l2.blocked::no_targets                       0                       # number of cycles access was blocked
system.l2.avg_blocked_cycles::no_mshrs            nan                       # average number of cycles each access was blocked
system.l2.avg_blocked_cycles::no_targets          nan                       # average number of cycles each access was blocked
system.l2.fast_writes                               0                       # number of fast writes performed
system.l2.cache_copies                              0                       # number of cache copies performed
system.l2.writebacks::writebacks              1115897                       # number of writebacks
system.l2.writebacks::total                   1115897                       # number of writebacks
system.l2.CleanEvict_mshr_misses::writebacks       711519                       # number of CleanEvict MSHR misses
system.l2.CleanEvict_mshr_misses::total        711519                       # number of CleanEvict MSHR misses
system.l2.ReadExReq_mshr_misses::cpu.data       209673                       # number of ReadExReq MSHR misses
system.l2.ReadExReq_mshr_misses::total         209673                       # number of ReadExReq MSHR misses
system.l2.ReadCleanReq_mshr_misses::cpu.inst          719                       # number of ReadCleanReq MSHR misses
system.l2.ReadCleanReq_mshr_misses::total          719                       # number of ReadCleanReq MSHR misses
system.l2.ReadSharedReq_mshr_misses::cpu.data      6339627                       # number of ReadSharedReq MSHR misses
system.l2.ReadSharedReq_mshr_misses::total      6339627                       # number of ReadSharedReq MSHR misses
system.l2.demand_mshr_misses::cpu.inst            719                       # number of demand (read+write) MSHR misses
system.l2.demand_mshr_misses::cpu.data        6549300                       # number of demand (read+write) MSHR misses
system.l2.demand_mshr_misses::total           6550019                       # number of demand (read+write) MSHR misses
system.l2.overall_mshr_misses::cpu.inst           719                       # number of overall MSHR misses
system.l2.overall_mshr_misses::cpu.data       6549300                       # number of overall MSHR misses
system.l2.overall_mshr_misses::total          6550019                       # number of overall MSHR misses
system.l2.ReadExReq_mshr_miss_latency::cpu.data  14734413000                       # number of ReadExReq MSHR miss cycles
system.l2.ReadExReq_mshr_miss_latency::total  14734413000                       # number of ReadExReq MSHR miss cycles
system.l2.ReadCleanReq_mshr_miss_latency::cpu.inst     49503000                       # number of ReadCleanReq MSHR miss cycles
system.l2.ReadCleanReq_mshr_miss_latency::total     49503000                       # number of ReadCleanReq MSHR miss cycles
system.l2.ReadSharedReq_mshr_miss_latency::cpu.data 519730951000                       # number of ReadSharedReq MSHR miss cycles
system.l2.ReadSharedReq_mshr_miss_latency::total 519730951000                       # number of ReadSharedReq MSHR miss cycles
system.l2.demand_mshr_miss_latency::cpu.inst     49503000                       # number of demand (read+write) MSHR miss cycles
system.l2.demand_mshr_miss_latency::cpu.data 534465364000                       # number of demand (read+write) MSHR miss cycles
system.l2.demand_mshr_miss_latency::total 534514867000                       # number of demand (read+write) MSHR miss cycles
system.l2.overall_mshr_miss_latency::cpu.inst     49503000                       # number of overall MSHR miss cycles
system.l2.overall_mshr_miss_latency::cpu.data 534465364000                       # number of overall MSHR miss cycles
system.l2.overall_mshr_miss_latency::total 534514867000                       # number of overall MSHR miss cycles
system.l2.CleanEvict_mshr_miss_rate::writebacks          inf                       # mshr miss rate for CleanEvict accesses
system.l2.CleanEvict_mshr_miss_rate::total          inf                       # mshr miss rate for CleanEvict accesses
system.l2.ReadExReq_mshr_miss_rate::cpu.data     0.619775                       # mshr miss rate for ReadExReq accesses
system.l2.ReadExReq_mshr_miss_rate::total     0.619775                       # mshr miss rate for ReadExReq accesses
system.l2.ReadCleanReq_mshr_miss_rate::cpu.inst     0.471166                       # mshr miss rate for ReadCleanReq accesses
system.l2.ReadCleanReq_mshr_miss_rate::total     0.471166                       # mshr miss rate for ReadCleanReq accesses
system.l2.ReadSharedReq_mshr_miss_rate::cpu.data     0.641746                       # mshr miss rate for ReadSharedReq accesses
system.l2.ReadSharedReq_mshr_miss_rate::total     0.641746                       # mshr miss rate for ReadSharedReq accesses
system.l2.demand_mshr_miss_rate::cpu.inst     0.471166                       # mshr miss rate for demand accesses
system.l2.demand_mshr_miss_rate::cpu.data     0.641018                       # mshr miss rate for demand accesses
system.l2.demand_mshr_miss_rate::total       0.640993                       # mshr miss rate for demand accesses
system.l2.overall_mshr_miss_rate::cpu.inst     0.471166                       # mshr miss rate for overall accesses
system.l2.overall_mshr_miss_rate::cpu.data     0.641018                       # mshr miss rate for overall accesses
system.l2.overall_mshr_miss_rate::total      0.640993                       # mshr miss rate for overall accesses
system.l2.ReadExReq_avg_mshr_miss_latency::cpu.data 70273.296991                       # average ReadExReq mshr miss latency
system.l2.ReadExReq_avg_mshr_miss_latency::total 70273.296991                       # average ReadExReq mshr miss latency
system.l2.ReadCleanReq_avg_mshr_miss_latency::cpu.inst 68849.791377                       # average ReadCleanReq mshr miss latency
system.l2.ReadCleanReq_avg_mshr_miss_latency::total 68849.791377                       # average ReadCleanReq mshr miss latency
system.l2.ReadSharedReq_avg_mshr_miss_latency::cpu.data 81981.313885                       # average ReadSharedReq mshr miss latency
system.l2.ReadSharedReq_avg_mshr_miss_latency::total 81981.313885                       # average ReadSharedReq mshr miss latency
system.l2.demand_avg_mshr_miss_latency::cpu.inst 68849.791377                       # average overall mshr miss latency
system.l2.demand_avg_mshr_miss_latency::cpu.data 81606.486800                       # average overall mshr miss latency
system.l2.demand_avg_mshr_miss_latency::total 81605.086489                       # average overall mshr miss latency
system.l2.overall_avg_mshr_miss_latency::cpu.inst 68849.791377                       # average overall mshr miss latency
system.l2.overall_avg_mshr_miss_latency::cpu.data 81606.486800                       # average overall mshr miss latency
system.l2.overall_avg_mshr_miss_latency::total 81605.086489                       # average overall mshr miss latency
system.l2.no_allocate_misses                        0                       # Number of misses that were no-allocate
system.membus.trans_dist::ReadResp            6340346                       # Transaction distribution
system.membus.trans_dist::WritebackDirty      1115897                       # Transaction distribution
system.membus.trans_dist::CleanEvict          5417212                       # Transaction distribution
system.membus.trans_dist::ReadExReq            209673                       # Transaction distribution
system.membus.trans_dist::ReadExResp           209673                       # Transaction distribution
system.membus.trans_dist::ReadSharedReq       6340346                       # Transaction distribution
system.membus.pkt_count_system.l2.mem_side::system.mem_ctrls.port     19633147                       # Packet count per connected master and slave (bytes)
system.membus.pkt_count_system.l2.mem_side::total     19633147                       # Packet count per connected master and slave (bytes)
system.membus.pkt_count::total               19633147                       # Packet count per connected master and slave (bytes)
system.membus.pkt_size_system.l2.mem_side::system.mem_ctrls.port    490618624                       # Cumulative packet size per connected master and slave (bytes)
system.membus.pkt_size_system.l2.mem_side::total    490618624                       # Cumulative packet size per connected master and slave (bytes)
system.membus.pkt_size::total               490618624                       # Cumulative packet size per connected master and slave (bytes)
system.membus.snoops                                0                       # Total snoops (count)
system.membus.snoop_fanout::samples          13083128                       # Request fanout histogram
system.membus.snoop_fanout::mean                    0                       # Request fanout histogram
system.membus.snoop_fanout::stdev                   0                       # Request fanout histogram
system.membus.snoop_fanout::underflows              0      0.00%      0.00% # Request fanout histogram
system.membus.snoop_fanout::0                13083128    100.00%    100.00% # Request fanout histogram
system.membus.snoop_fanout::1                       0      0.00%    100.00% # Request fanout histogram
system.membus.snoop_fanout::overflows               0      0.00%    100.00% # Request fanout histogram
system.membus.snoop_fanout::min_value               0                       # Request fanout histogram
system.membus.snoop_fanout::max_value               0                       # Request fanout histogram
system.membus.snoop_fanout::total            13083128                       # Request fanout histogram
system.membus.reqLayer2.occupancy         17555416000                       # Layer occupancy (ticks)
system.membus.reqLayer2.utilization               1.1                       # Layer utilization (%)
system.membus.respLayer1.occupancy        36543470750                       # Layer occupancy (ticks)
system.membus.respLayer1.utilization              2.2                       # Layer utilization (%)
system.tol2bus.snoop_filter.tot_requests     20434616                       # Total number of requests made to the snoop filter.
system.tol2bus.snoop_filter.hit_single_requests     10216063                       # Number of requests hitting in the snoop filter with a single holder of the requested data.
system.tol2bus.snoop_filter.hit_multi_requests            1                       # Number of requests hitting in the snoop filter with multiple (>1) holders of the requested data.
system.tol2bus.snoop_filter.tot_snoops         893576                       # Total number of snoops made to the snoop filter.
system.tol2bus.snoop_filter.hit_single_snoops       893576                       # Number of snoops hitting in the snoop filter with a single holder of the requested data.
system.tol2bus.snoop_filter.hit_multi_snoops            0                       # Number of snoops hitting in the snoop filter with multiple (>1) holders of the requested data.
system.tol2bus.trans_dist::ReadResp           9880248                       # Transaction distribution
system.tol2bus.trans_dist::WritebackDirty      3617978                       # Transaction distribution
system.tol2bus.trans_dist::WritebackClean         1083                       # Transaction distribution
system.tol2bus.trans_dist::CleanEvict        13312167                       # Transaction distribution
system.tol2bus.trans_dist::ReadExReq           338305                       # Transaction distribution
system.tol2bus.trans_dist::ReadExResp          338305                       # Transaction distribution
system.tol2bus.trans_dist::ReadCleanReq          1526                       # Transaction distribution
system.tol2bus.trans_dist::ReadSharedReq      9878722                       # Transaction distribution
system.tol2bus.pkt_count_system.cpu.icache.mem_side::system.l2.cpu_side         4135                       # Packet count per connected master and slave (bytes)
system.tol2bus.pkt_count_system.cpu.dcache.mem_side::system.l2.cpu_side     30649033                       # Packet count per connected master and slave (bytes)
system.tol2bus.pkt_count::total              30653168                       # Packet count per connected master and slave (bytes)
system.tol2bus.pkt_size_system.cpu.icache.mem_side::system.l2.cpu_side       166976                       # Cumulative packet size per connected master and slave (bytes)
system.tol2bus.pkt_size_system.cpu.dcache.mem_side::system.l2.cpu_side    814022912                       # Cumulative packet size per connected master and slave (bytes)
system.tol2bus.pkt_size::total              814189888                       # Cumulative packet size per connected master and slave (bytes)
system.tol2bus.snoops                         6715166                       # Total snoops (count)
system.tol2bus.snoop_fanout::samples         16933719                       # Request fanout histogram
system.tol2bus.snoop_fanout::mean            0.052769                       # Request fanout histogram
system.tol2bus.snoop_fanout::stdev           0.223572                       # Request fanout histogram
system.tol2bus.snoop_fanout::underflows             0      0.00%      0.00% # Request fanout histogram
system.tol2bus.snoop_fanout::0               16040142     94.72%     94.72% # Request fanout histogram
system.tol2bus.snoop_fanout::1                 893577      5.28%    100.00% # Request fanout histogram
system.tol2bus.snoop_fanout::2                      0      0.00%    100.00% # Request fanout histogram
system.tol2bus.snoop_fanout::3                      0      0.00%    100.00% # Request fanout histogram
system.tol2bus.snoop_fanout::4                      0      0.00%    100.00% # Request fanout histogram
system.tol2bus.snoop_fanout::overflows              0      0.00%    100.00% # Request fanout histogram
system.tol2bus.snoop_fanout::min_value              0                       # Request fanout histogram
system.tol2bus.snoop_fanout::max_value              1                       # Request fanout histogram
system.tol2bus.snoop_fanout::total           16933719                       # Request fanout histogram
system.tol2bus.reqLayer0.occupancy        12720473000                       # Layer occupancy (ticks)
system.tol2bus.reqLayer0.utilization              0.8                       # Layer utilization (%)
system.tol2bus.respLayer0.occupancy           2289000                       # Layer occupancy (ticks)
system.tol2bus.respLayer0.utilization             0.0                       # Layer utilization (%)
system.tol2bus.respLayer1.occupancy       15325540500                       # Layer occupancy (ticks)
system.tol2bus.respLayer1.utilization             0.9                       # Layer utilization (%)

---------- End Simulation Statistics   ----------
