
---------- Begin Simulation Statistics ----------
sim_seconds                                  1.624954                       # Number of seconds simulated
sim_ticks                                1624954065500                       # Number of ticks simulated
final_tick                               1624954065500                       # Number of ticks from beginning of simulation (restored from checkpoints and never reset)
sim_freq                                 1000000000000                       # Frequency of simulated ticks
host_inst_rate                                 118349                       # Simulator instruction rate (inst/s)
host_op_rate                                   207422                       # Simulator op (including micro ops) rate (op/s)
host_tick_rate                              384623579                       # Simulator tick rate (ticks/s)
host_mem_usage                                 827300                       # Number of bytes of host memory used
host_seconds                                  4224.79                       # Real time elapsed on the host
sim_insts                                   500000000                       # Number of instructions simulated
sim_ops                                     876313791                       # Number of ops (including micro ops) simulated
system.voltage_domain.voltage                       1                       # Voltage in Volts
system.clk_domain.clock                          1000                       # Clock period in ticks
system.mem_ctrls.bytes_read::cpu.inst           43520                       # Number of bytes read from this memory
system.mem_ctrls.bytes_read::cpu.data       419153088                       # Number of bytes read from this memory
system.mem_ctrls.bytes_read::total          419196608                       # Number of bytes read from this memory
system.mem_ctrls.bytes_inst_read::cpu.inst        43520                       # Number of instructions bytes read from this memory
system.mem_ctrls.bytes_inst_read::total         43520                       # Number of instructions bytes read from this memory
system.mem_ctrls.bytes_written::writebacks     71415616                       # Number of bytes written to this memory
system.mem_ctrls.bytes_written::total        71415616                       # Number of bytes written to this memory
system.mem_ctrls.num_reads::cpu.inst              680                       # Number of read requests responded to by this memory
system.mem_ctrls.num_reads::cpu.data          6549267                       # Number of read requests responded to by this memory
system.mem_ctrls.num_reads::total             6549947                       # Number of read requests responded to by this memory
system.mem_ctrls.num_writes::writebacks       1115869                       # Number of write requests responded to by this memory
system.mem_ctrls.num_writes::total            1115869                       # Number of write requests responded to by this memory
system.mem_ctrls.bw_read::cpu.inst              26782                       # Total read bandwidth from this memory (bytes/s)
system.mem_ctrls.bw_read::cpu.data          257947653                       # Total read bandwidth from this memory (bytes/s)
system.mem_ctrls.bw_read::total             257974436                       # Total read bandwidth from this memory (bytes/s)
system.mem_ctrls.bw_inst_read::cpu.inst         26782                       # Instruction read bandwidth from this memory (bytes/s)
system.mem_ctrls.bw_inst_read::total            26782                       # Instruction read bandwidth from this memory (bytes/s)
system.mem_ctrls.bw_write::writebacks        43949314                       # Write bandwidth from this memory (bytes/s)
system.mem_ctrls.bw_write::total             43949314                       # Write bandwidth from this memory (bytes/s)
system.mem_ctrls.bw_total::writebacks        43949314                       # Total bandwidth to/from this memory (bytes/s)
system.mem_ctrls.bw_total::cpu.inst             26782                       # Total bandwidth to/from this memory (bytes/s)
system.mem_ctrls.bw_total::cpu.data         257947653                       # Total bandwidth to/from this memory (bytes/s)
system.mem_ctrls.bw_total::total            301923749                       # Total bandwidth to/from this memory (bytes/s)
system.mem_ctrls.readReqs                     6549947                       # Number of read requests accepted
system.mem_ctrls.writeReqs                    1115869                       # Number of write requests accepted
system.mem_ctrls.readBursts                   6549947                       # Number of DRAM read bursts, including those serviced by the write queue
system.mem_ctrls.writeBursts                  1115869                       # Number of DRAM write bursts, including those merged in the write queue
system.mem_ctrls.bytesReadDRAM              418400448                       # Total number of bytes read from DRAM
system.mem_ctrls.bytesReadWrQ                  796160                       # Total number of bytes read from write queue
system.mem_ctrls.bytesWritten                71409088                       # Total number of bytes written to DRAM
system.mem_ctrls.bytesReadSys               419196608                       # Total read bytes from the system interface side
system.mem_ctrls.bytesWrittenSys             71415616                       # Total written bytes from the system interface side
system.mem_ctrls.servicedByWrQ                  12440                       # Number of DRAM read bursts serviced by the write queue
system.mem_ctrls.mergedWrBursts                    82                       # Number of DRAM write bursts merged with an existing one
system.mem_ctrls.neitherReadNorWriteReqs      5416996                       # Number of requests that are neither read nor write
system.mem_ctrls.perBankRdBursts::0            421233                       # Per bank write bursts
system.mem_ctrls.perBankRdBursts::1            402159                       # Per bank write bursts
system.mem_ctrls.perBankRdBursts::2            404590                       # Per bank write bursts
system.mem_ctrls.perBankRdBursts::3            424861                       # Per bank write bursts
system.mem_ctrls.perBankRdBursts::4            397754                       # Per bank write bursts
system.mem_ctrls.perBankRdBursts::5            399785                       # Per bank write bursts
system.mem_ctrls.perBankRdBursts::6            407063                       # Per bank write bursts
system.mem_ctrls.perBankRdBursts::7            397549                       # Per bank write bursts
system.mem_ctrls.perBankRdBursts::8            401610                       # Per bank write bursts
system.mem_ctrls.perBankRdBursts::9            400354                       # Per bank write bursts
system.mem_ctrls.perBankRdBursts::10           401988                       # Per bank write bursts
system.mem_ctrls.perBankRdBursts::11           407125                       # Per bank write bursts
system.mem_ctrls.perBankRdBursts::12           417943                       # Per bank write bursts
system.mem_ctrls.perBankRdBursts::13           421033                       # Per bank write bursts
system.mem_ctrls.perBankRdBursts::14           414772                       # Per bank write bursts
system.mem_ctrls.perBankRdBursts::15           417688                       # Per bank write bursts
system.mem_ctrls.perBankWrBursts::0             71849                       # Per bank write bursts
system.mem_ctrls.perBankWrBursts::1             71025                       # Per bank write bursts
system.mem_ctrls.perBankWrBursts::2             71284                       # Per bank write bursts
system.mem_ctrls.perBankWrBursts::3             75521                       # Per bank write bursts
system.mem_ctrls.perBankWrBursts::4             68938                       # Per bank write bursts
system.mem_ctrls.perBankWrBursts::5             66279                       # Per bank write bursts
system.mem_ctrls.perBankWrBursts::6             70033                       # Per bank write bursts
system.mem_ctrls.perBankWrBursts::7             65842                       # Per bank write bursts
system.mem_ctrls.perBankWrBursts::8             66993                       # Per bank write bursts
system.mem_ctrls.perBankWrBursts::9             65598                       # Per bank write bursts
system.mem_ctrls.perBankWrBursts::10            66005                       # Per bank write bursts
system.mem_ctrls.perBankWrBursts::11            69651                       # Per bank write bursts
system.mem_ctrls.perBankWrBursts::12            71878                       # Per bank write bursts
system.mem_ctrls.perBankWrBursts::13            71958                       # Per bank write bursts
system.mem_ctrls.perBankWrBursts::14            71368                       # Per bank write bursts
system.mem_ctrls.perBankWrBursts::15            71545                       # Per bank write bursts
system.mem_ctrls.numRdRetry                         0                       # Number of times read queue was full causing retry
system.mem_ctrls.numWrRetry                         0                       # Number of times write queue was full causing retry
system.mem_ctrls.totGap                  1624937875500                       # Total gap between requests
system.mem_ctrls.readPktSize::0                     0                       # Read request sizes (log2)
system.mem_ctrls.readPktSize::1                     0                       # Read request sizes (log2)
system.mem_ctrls.readPktSize::2                     0                       # Read request sizes (log2)
system.mem_ctrls.readPktSize::3                     0                       # Read request sizes (log2)
system.mem_ctrls.readPktSize::4                     0                       # Read request sizes (log2)
system.mem_ctrls.readPktSize::5                     0                       # Read request sizes (log2)
system.mem_ctrls.readPktSize::6               6549947                       # Read request sizes (log2)
system.mem_ctrls.writePktSize::0                    0                       # Write request sizes (log2)
system.mem_ctrls.writePktSize::1                    0                       # Write request sizes (log2)
system.mem_ctrls.writePktSize::2                    0                       # Write request sizes (log2)
system.mem_ctrls.writePktSize::3                    0                       # Write request sizes (log2)
system.mem_ctrls.writePktSize::4                    0                       # Write request sizes (log2)
system.mem_ctrls.writePktSize::5                    0                       # Write request sizes (log2)
system.mem_ctrls.writePktSize::6              1115869                       # Write request sizes (log2)
system.mem_ctrls.rdQLenPdf::0                 6537507                       # What read queue length does an incoming req see
system.mem_ctrls.rdQLenPdf::1                       0                       # What read queue length does an incoming req see
system.mem_ctrls.rdQLenPdf::2                       0                       # What read queue length does an incoming req see
system.mem_ctrls.rdQLenPdf::3                       0                       # What read queue length does an incoming req see
system.mem_ctrls.rdQLenPdf::4                       0                       # What read queue length does an incoming req see
system.mem_ctrls.rdQLenPdf::5                       0                       # What read queue length does an incoming req see
system.mem_ctrls.rdQLenPdf::6                       0                       # What read queue length does an incoming req see
system.mem_ctrls.rdQLenPdf::7                       0                       # What read queue length does an incoming req see
system.mem_ctrls.rdQLenPdf::8                       0                       # What read queue length does an incoming req see
system.mem_ctrls.rdQLenPdf::9                       0                       # What read queue length does an incoming req see
system.mem_ctrls.rdQLenPdf::10                      0                       # What read queue length does an incoming req see
system.mem_ctrls.rdQLenPdf::11                      0                       # What read queue length does an incoming req see
system.mem_ctrls.rdQLenPdf::12                      0                       # What read queue length does an incoming req see
system.mem_ctrls.rdQLenPdf::13                      0                       # What read queue length does an incoming req see
system.mem_ctrls.rdQLenPdf::14                      0                       # What read queue length does an incoming req see
system.mem_ctrls.rdQLenPdf::15                      0                       # What read queue length does an incoming req see
system.mem_ctrls.rdQLenPdf::16                      0                       # What read queue length does an incoming req see
system.mem_ctrls.rdQLenPdf::17                      0                       # What read queue length does an incoming req see
system.mem_ctrls.rdQLenPdf::18                      0                       # What read queue length does an incoming req see
system.mem_ctrls.rdQLenPdf::19                      0                       # What read queue length does an incoming req see
system.mem_ctrls.rdQLenPdf::20                      0                       # What read queue length does an incoming req see
system.mem_ctrls.rdQLenPdf::21                      0                       # What read queue length does an incoming req see
system.mem_ctrls.rdQLenPdf::22                      0                       # What read queue length does an incoming req see
system.mem_ctrls.rdQLenPdf::23                      0                       # What read queue length does an incoming req see
system.mem_ctrls.rdQLenPdf::24                      0                       # What read queue length does an incoming req see
system.mem_ctrls.rdQLenPdf::25                      0                       # What read queue length does an incoming req see
system.mem_ctrls.rdQLenPdf::26                      0                       # What read queue length does an incoming req see
system.mem_ctrls.rdQLenPdf::27                      0                       # What read queue length does an incoming req see
system.mem_ctrls.rdQLenPdf::28                      0                       # What read queue length does an incoming req see
system.mem_ctrls.rdQLenPdf::29                      0                       # What read queue length does an incoming req see
system.mem_ctrls.rdQLenPdf::30                      0                       # What read queue length does an incoming req see
system.mem_ctrls.rdQLenPdf::31                      0                       # What read queue length does an incoming req see
system.mem_ctrls.wrQLenPdf::0                       1                       # What write queue length does an incoming req see
system.mem_ctrls.wrQLenPdf::1                       1                       # What write queue length does an incoming req see
system.mem_ctrls.wrQLenPdf::2                       1                       # What write queue length does an incoming req see
system.mem_ctrls.wrQLenPdf::3                       1                       # What write queue length does an incoming req see
system.mem_ctrls.wrQLenPdf::4                       1                       # What write queue length does an incoming req see
system.mem_ctrls.wrQLenPdf::5                       1                       # What write queue length does an incoming req see
system.mem_ctrls.wrQLenPdf::6                       1                       # What write queue length does an incoming req see
system.mem_ctrls.wrQLenPdf::7                       1                       # What write queue length does an incoming req see
system.mem_ctrls.wrQLenPdf::8                       1                       # What write queue length does an incoming req see
system.mem_ctrls.wrQLenPdf::9                       1                       # What write queue length does an incoming req see
system.mem_ctrls.wrQLenPdf::10                      1                       # What write queue length does an incoming req see
system.mem_ctrls.wrQLenPdf::11                      1                       # What write queue length does an incoming req see
system.mem_ctrls.wrQLenPdf::12                      1                       # What write queue length does an incoming req see
system.mem_ctrls.wrQLenPdf::13                      1                       # What write queue length does an incoming req see
system.mem_ctrls.wrQLenPdf::14                      1                       # What write queue length does an incoming req see
system.mem_ctrls.wrQLenPdf::15                  32925                       # What write queue length does an incoming req see
system.mem_ctrls.wrQLenPdf::16                  34338                       # What write queue length does an incoming req see
system.mem_ctrls.wrQLenPdf::17                  65433                       # What write queue length does an incoming req see
system.mem_ctrls.wrQLenPdf::18                  65543                       # What write queue length does an incoming req see
system.mem_ctrls.wrQLenPdf::19                  65522                       # What write queue length does an incoming req see
system.mem_ctrls.wrQLenPdf::20                  65534                       # What write queue length does an incoming req see
system.mem_ctrls.wrQLenPdf::21                  65512                       # What write queue length does an incoming req see
system.mem_ctrls.wrQLenPdf::22                  65516                       # What write queue length does an incoming req see
system.mem_ctrls.wrQLenPdf::23                  65511                       # What write queue length does an incoming req see
system.mem_ctrls.wrQLenPdf::24                  65511                       # What write queue length does an incoming req see
system.mem_ctrls.wrQLenPdf::25                  65549                       # What write queue length does an incoming req see
system.mem_ctrls.wrQLenPdf::26                  65525                       # What write queue length does an incoming req see
system.mem_ctrls.wrQLenPdf::27                  65592                       # What write queue length does an incoming req see
system.mem_ctrls.wrQLenPdf::28                  65644                       # What write queue length does an incoming req see
system.mem_ctrls.wrQLenPdf::29                  65545                       # What write queue length does an incoming req see
system.mem_ctrls.wrQLenPdf::30                  65565                       # What write queue length does an incoming req see
system.mem_ctrls.wrQLenPdf::31                  65507                       # What write queue length does an incoming req see
system.mem_ctrls.wrQLenPdf::32                  65498                       # What write queue length does an incoming req see
system.mem_ctrls.wrQLenPdf::33                      2                       # What write queue length does an incoming req see
system.mem_ctrls.wrQLenPdf::34                      0                       # What write queue length does an incoming req see
system.mem_ctrls.wrQLenPdf::35                      0                       # What write queue length does an incoming req see
system.mem_ctrls.wrQLenPdf::36                      0                       # What write queue length does an incoming req see
system.mem_ctrls.wrQLenPdf::37                      0                       # What write queue length does an incoming req see
system.mem_ctrls.wrQLenPdf::38                      0                       # What write queue length does an incoming req see
system.mem_ctrls.wrQLenPdf::39                      0                       # What write queue length does an incoming req see
system.mem_ctrls.wrQLenPdf::40                      0                       # What write queue length does an incoming req see
system.mem_ctrls.wrQLenPdf::41                      0                       # What write queue length does an incoming req see
system.mem_ctrls.wrQLenPdf::42                      0                       # What write queue length does an incoming req see
system.mem_ctrls.wrQLenPdf::43                      0                       # What write queue length does an incoming req see
system.mem_ctrls.wrQLenPdf::44                      0                       # What write queue length does an incoming req see
system.mem_ctrls.wrQLenPdf::45                      0                       # What write queue length does an incoming req see
system.mem_ctrls.wrQLenPdf::46                      0                       # What write queue length does an incoming req see
system.mem_ctrls.wrQLenPdf::47                      0                       # What write queue length does an incoming req see
system.mem_ctrls.wrQLenPdf::48                      0                       # What write queue length does an incoming req see
system.mem_ctrls.wrQLenPdf::49                      0                       # What write queue length does an incoming req see
system.mem_ctrls.wrQLenPdf::50                      0                       # What write queue length does an incoming req see
system.mem_ctrls.wrQLenPdf::51                      0                       # What write queue length does an incoming req see
system.mem_ctrls.wrQLenPdf::52                      0                       # What write queue length does an incoming req see
system.mem_ctrls.wrQLenPdf::53                      0                       # What write queue length does an incoming req see
system.mem_ctrls.wrQLenPdf::54                      0                       # What write queue length does an incoming req see
system.mem_ctrls.wrQLenPdf::55                      0                       # What write queue length does an incoming req see
system.mem_ctrls.wrQLenPdf::56                      0                       # What write queue length does an incoming req see
system.mem_ctrls.wrQLenPdf::57                      0                       # What write queue length does an incoming req see
system.mem_ctrls.wrQLenPdf::58                      0                       # What write queue length does an incoming req see
system.mem_ctrls.wrQLenPdf::59                      0                       # What write queue length does an incoming req see
system.mem_ctrls.wrQLenPdf::60                      0                       # What write queue length does an incoming req see
system.mem_ctrls.wrQLenPdf::61                      0                       # What write queue length does an incoming req see
system.mem_ctrls.wrQLenPdf::62                      0                       # What write queue length does an incoming req see
system.mem_ctrls.wrQLenPdf::63                      0                       # What write queue length does an incoming req see
system.mem_ctrls.bytesPerActivate::samples      5821012                       # Bytes accessed per row activation
system.mem_ctrls.bytesPerActivate::mean     84.145083                       # Bytes accessed per row activation
system.mem_ctrls.bytesPerActivate::gmean    71.021027                       # Bytes accessed per row activation
system.mem_ctrls.bytesPerActivate::stdev   109.631539                       # Bytes accessed per row activation
system.mem_ctrls.bytesPerActivate::0-127      5297930     91.01%     91.01% # Bytes accessed per row activation
system.mem_ctrls.bytesPerActivate::128-255       383030      6.58%     97.59% # Bytes accessed per row activation
system.mem_ctrls.bytesPerActivate::256-383        31538      0.54%     98.14% # Bytes accessed per row activation
system.mem_ctrls.bytesPerActivate::384-511        14935      0.26%     98.39% # Bytes accessed per row activation
system.mem_ctrls.bytesPerActivate::512-639        11771      0.20%     98.59% # Bytes accessed per row activation
system.mem_ctrls.bytesPerActivate::640-767         9438      0.16%     98.76% # Bytes accessed per row activation
system.mem_ctrls.bytesPerActivate::768-895        11983      0.21%     98.96% # Bytes accessed per row activation
system.mem_ctrls.bytesPerActivate::896-1023         8643      0.15%     99.11% # Bytes accessed per row activation
system.mem_ctrls.bytesPerActivate::1024-1151        51744      0.89%    100.00% # Bytes accessed per row activation
system.mem_ctrls.bytesPerActivate::total      5821012                       # Bytes accessed per row activation
system.mem_ctrls.rdPerTurnAround::samples        65498                       # Reads before turning the bus around for writes
system.mem_ctrls.rdPerTurnAround::mean      99.812132                       # Reads before turning the bus around for writes
system.mem_ctrls.rdPerTurnAround::gmean     56.375311                       # Reads before turning the bus around for writes
system.mem_ctrls.rdPerTurnAround::stdev    146.549181                       # Reads before turning the bus around for writes
system.mem_ctrls.rdPerTurnAround::0-255         57757     88.18%     88.18% # Reads before turning the bus around for writes
system.mem_ctrls.rdPerTurnAround::256-511         6953     10.62%     98.80% # Reads before turning the bus around for writes
system.mem_ctrls.rdPerTurnAround::512-767          417      0.64%     99.43% # Reads before turning the bus around for writes
system.mem_ctrls.rdPerTurnAround::768-1023          191      0.29%     99.73% # Reads before turning the bus around for writes
system.mem_ctrls.rdPerTurnAround::1024-1279           68      0.10%     99.83% # Reads before turning the bus around for writes
system.mem_ctrls.rdPerTurnAround::1280-1535           45      0.07%     99.90% # Reads before turning the bus around for writes
system.mem_ctrls.rdPerTurnAround::1536-1791           19      0.03%     99.93% # Reads before turning the bus around for writes
system.mem_ctrls.rdPerTurnAround::1792-2047           20      0.03%     99.96% # Reads before turning the bus around for writes
system.mem_ctrls.rdPerTurnAround::2048-2303            7      0.01%     99.97% # Reads before turning the bus around for writes
system.mem_ctrls.rdPerTurnAround::2304-2559            9      0.01%     99.98% # Reads before turning the bus around for writes
system.mem_ctrls.rdPerTurnAround::2560-2815            5      0.01%     99.99% # Reads before turning the bus around for writes
system.mem_ctrls.rdPerTurnAround::2816-3071            1      0.00%     99.99% # Reads before turning the bus around for writes
system.mem_ctrls.rdPerTurnAround::3072-3327            1      0.00%     99.99% # Reads before turning the bus around for writes
system.mem_ctrls.rdPerTurnAround::3328-3583            1      0.00%     99.99% # Reads before turning the bus around for writes
system.mem_ctrls.rdPerTurnAround::3584-3839            1      0.00%    100.00% # Reads before turning the bus around for writes
system.mem_ctrls.rdPerTurnAround::4096-4351            1      0.00%    100.00% # Reads before turning the bus around for writes
system.mem_ctrls.rdPerTurnAround::4864-5119            1      0.00%    100.00% # Reads before turning the bus around for writes
system.mem_ctrls.rdPerTurnAround::5120-5375            1      0.00%    100.00% # Reads before turning the bus around for writes
system.mem_ctrls.rdPerTurnAround::total         65498                       # Reads before turning the bus around for writes
system.mem_ctrls.wrPerTurnAround::samples        65498                       # Writes before turning the bus around for reads
system.mem_ctrls.wrPerTurnAround::mean      17.035131                       # Writes before turning the bus around for reads
system.mem_ctrls.wrPerTurnAround::gmean     17.005741                       # Writes before turning the bus around for reads
system.mem_ctrls.wrPerTurnAround::stdev      0.999642                       # Writes before turning the bus around for reads
system.mem_ctrls.wrPerTurnAround::16            31147     47.55%     47.55% # Writes before turning the bus around for reads
system.mem_ctrls.wrPerTurnAround::17             1361      2.08%     49.63% # Writes before turning the bus around for reads
system.mem_ctrls.wrPerTurnAround::18            32542     49.68%     99.32% # Writes before turning the bus around for reads
system.mem_ctrls.wrPerTurnAround::19              438      0.67%     99.98% # Writes before turning the bus around for reads
system.mem_ctrls.wrPerTurnAround::20               10      0.02%    100.00% # Writes before turning the bus around for reads
system.mem_ctrls.wrPerTurnAround::total         65498                       # Writes before turning the bus around for reads
system.mem_ctrls.totQLat                 149544585500                       # Total ticks spent queuing
system.mem_ctrls.totMemAccLat            272122841750                       # Total ticks spent from burst creation until serviced by the DRAM
system.mem_ctrls.totBusLat                32687535000                       # Total ticks spent in databus transfers
system.mem_ctrls.avgQLat                     22874.86                       # Average queueing delay per DRAM burst
system.mem_ctrls.avgBusLat                    5000.00                       # Average bus latency per DRAM burst
system.mem_ctrls.avgMemAccLat                41624.86                       # Average memory access latency per DRAM burst
system.mem_ctrls.avgRdBW                       257.48                       # Average DRAM read bandwidth in MiByte/s
system.mem_ctrls.avgWrBW                        43.95                       # Average achieved write bandwidth in MiByte/s
system.mem_ctrls.avgRdBWSys                    257.97                       # Average system read bandwidth in MiByte/s
system.mem_ctrls.avgWrBWSys                     43.95                       # Average system write bandwidth in MiByte/s
system.mem_ctrls.peakBW                      12800.00                       # Theoretical peak bandwidth in MiByte/s
system.mem_ctrls.busUtil                         2.35                       # Data bus utilization in percentage
system.mem_ctrls.busUtilRead                     2.01                       # Data bus utilization in percentage for reads
system.mem_ctrls.busUtilWrite                    0.34                       # Data bus utilization in percentage for writes
system.mem_ctrls.avgRdQLen                       1.00                       # Average read queue length when enqueuing
system.mem_ctrls.avgWrQLen                      24.85                       # Average write queue length when enqueuing
system.mem_ctrls.readRowHits                  1334285                       # Number of row buffer hits during reads
system.mem_ctrls.writeRowHits                  497977                       # Number of row buffer hits during writes
system.mem_ctrls.readRowHitRate                 20.41                       # Row buffer hit rate for reads
system.mem_ctrls.writeRowHitRate                44.63                       # Row buffer hit rate for writes
system.mem_ctrls.avgGap                     211971.94                       # Average gap between requests
system.mem_ctrls.pageHitRate                    23.94                       # Row buffer hit rate, read and write combined
system.mem_ctrls_0.actEnergy              21930788880                       # Energy for activate commands per rank (pJ)
system.mem_ctrls_0.preEnergy              11966204250                       # Energy for precharge commands per rank (pJ)
system.mem_ctrls_0.readEnergy             25388953200                       # Energy for read commands per rank (pJ)
system.mem_ctrls_0.writeEnergy             3633796080                       # Energy for write commands per rank (pJ)
system.mem_ctrls_0.refreshEnergy         106133929200                       # Energy for refresh commands per rank (pJ)
system.mem_ctrls_0.actBackEnergy         844592263695                       # Energy for active background per rank (pJ)
system.mem_ctrls_0.preBackEnergy         234100607250                       # Energy for precharge background per rank (pJ)
system.mem_ctrls_0.totalEnergy           1247746542555                       # Total energy per rank (pJ)
system.mem_ctrls_0.averagePower            767.866854                       # Core power per rank (mW)
system.mem_ctrls_0.memoryStateTime::IDLE 384333705500                       # Time in different power states
system.mem_ctrls_0.memoryStateTime::REF   54260700000                       # Time in different power states
system.mem_ctrls_0.memoryStateTime::PRE_PDN            0                       # Time in different power states
system.mem_ctrls_0.memoryStateTime::ACT  1186357298250                       # Time in different power states
system.mem_ctrls_0.memoryStateTime::ACT_PDN            0                       # Time in different power states
system.mem_ctrls_1.actEnergy              22076061840                       # Energy for activate commands per rank (pJ)
system.mem_ctrls_1.preEnergy              12045470250                       # Energy for precharge commands per rank (pJ)
system.mem_ctrls_1.readEnergy             25603601400                       # Energy for read commands per rank (pJ)
system.mem_ctrls_1.writeEnergy             3596374080                       # Energy for write commands per rank (pJ)
system.mem_ctrls_1.refreshEnergy         106133929200                       # Energy for refresh commands per rank (pJ)
system.mem_ctrls_1.actBackEnergy         844389283275                       # Energy for active background per rank (pJ)
system.mem_ctrls_1.preBackEnergy         234278660250                       # Energy for precharge background per rank (pJ)
system.mem_ctrls_1.totalEnergy           1248123380295                       # Total energy per rank (pJ)
system.mem_ctrls_1.averagePower            768.098761                       # Core power per rank (mW)
system.mem_ctrls_1.memoryStateTime::IDLE 384281365500                       # Time in different power states
system.mem_ctrls_1.memoryStateTime::REF   54260700000                       # Time in different power states
system.mem_ctrls_1.memoryStateTime::PRE_PDN            0                       # Time in different power states
system.mem_ctrls_1.memoryStateTime::ACT  1186409638250                       # Time in different power states
system.mem_ctrls_1.memoryStateTime::ACT_PDN            0                       # Time in different power states
system.cpu_voltage_domain.voltage                   1                       # Voltage in Volts
system.cpu_clk_domain.clock                       500                       # Clock period in ticks
system.cpu.apic_clk_domain.clock                 8000                       # Clock period in ticks
system.cpu.workload.num_syscalls                  168                       # Number of system calls
system.cpu.numCycles                       3249908131                       # number of cpu cycles simulated
system.cpu.numWorkItemsStarted                      0                       # number of work items this cpu started
system.cpu.numWorkItemsCompleted                    0                       # number of work items this cpu completed
system.cpu.committedInsts                   500000000                       # Number of instructions committed
system.cpu.committedOps                     876313791                       # Number of ops (including micro ops) committed
system.cpu.num_int_alu_accesses             872966650                       # Number of integer alu accesses
system.cpu.num_fp_alu_accesses                2882295                       # Number of float alu accesses
system.cpu.num_func_calls                    11025254                       # number of times a function call or return occured
system.cpu.num_conditional_control_insts     75981001                       # number of instructions that are conditional controls
system.cpu.num_int_insts                    872966650                       # number of integer instructions
system.cpu.num_fp_insts                       2882295                       # number of float instructions
system.cpu.num_int_register_reads          1835046799                       # number of times the integer registers were read
system.cpu.num_int_register_writes          703076403                       # number of times the integer registers were written
system.cpu.num_fp_register_reads              4386181                       # number of times the floating registers were read
system.cpu.num_fp_register_writes             2464451                       # number of times the floating registers were written
system.cpu.num_cc_register_reads            441654653                       # number of times the CC registers were read
system.cpu.num_cc_register_writes           253505530                       # number of times the CC registers were written
system.cpu.num_mem_refs                     293763540                       # number of memory refs
system.cpu.num_load_insts                   221284996                       # Number of load instructions
system.cpu.num_store_insts                   72478544                       # Number of store instructions
system.cpu.num_idle_cycles                          0                       # Number of idle cycles
system.cpu.num_busy_cycles                 3249908131                       # Number of busy cycles
system.cpu.not_idle_fraction                        1                       # Percentage of non-idle cycles
system.cpu.idle_fraction                            0                       # Percentage of idle cycles
system.cpu.Branches                          97900991                       # Number of branches fetched
system.cpu.op_class::No_OpClass                939429      0.11%      0.11% # Class of executed instruction
system.cpu.op_class::IntAlu                 578420275     66.01%     66.11% # Class of executed instruction
system.cpu.op_class::IntMult                   907073      0.10%     66.22% # Class of executed instruction
system.cpu.op_class::IntDiv                        42      0.00%     66.22% # Class of executed instruction
system.cpu.op_class::FloatAdd                 2283432      0.26%     66.48% # Class of executed instruction
system.cpu.op_class::FloatCmp                       0      0.00%     66.48% # Class of executed instruction
system.cpu.op_class::FloatCvt                       0      0.00%     66.48% # Class of executed instruction
system.cpu.op_class::FloatMult                      0      0.00%     66.48% # Class of executed instruction
system.cpu.op_class::FloatDiv                       0      0.00%     66.48% # Class of executed instruction
system.cpu.op_class::FloatSqrt                      0      0.00%     66.48% # Class of executed instruction
system.cpu.op_class::SimdAdd                        0      0.00%     66.48% # Class of executed instruction
system.cpu.op_class::SimdAddAcc                     0      0.00%     66.48% # Class of executed instruction
system.cpu.op_class::SimdAlu                        0      0.00%     66.48% # Class of executed instruction
system.cpu.op_class::SimdCmp                        0      0.00%     66.48% # Class of executed instruction
system.cpu.op_class::SimdCvt                        0      0.00%     66.48% # Class of executed instruction
system.cpu.op_class::SimdMisc                       0      0.00%     66.48% # Class of executed instruction
system.cpu.op_class::SimdMult                       0      0.00%     66.48% # Class of executed instruction
system.cpu.op_class::SimdMultAcc                    0      0.00%     66.48% # Class of executed instruction
system.cpu.op_class::SimdShift                      0      0.00%     66.48% # Class of executed instruction
system.cpu.op_class::SimdShiftAcc                   0      0.00%     66.48% # Class of executed instruction
system.cpu.op_class::SimdSqrt                       0      0.00%     66.48% # Class of executed instruction
system.cpu.op_class::SimdFloatAdd                   0      0.00%     66.48% # Class of executed instruction
system.cpu.op_class::SimdFloatAlu                   0      0.00%     66.48% # Class of executed instruction
system.cpu.op_class::SimdFloatCmp                   0      0.00%     66.48% # Class of executed instruction
system.cpu.op_class::SimdFloatCvt                   0      0.00%     66.48% # Class of executed instruction
system.cpu.op_class::SimdFloatDiv                   0      0.00%     66.48% # Class of executed instruction
system.cpu.op_class::SimdFloatMisc                  0      0.00%     66.48% # Class of executed instruction
system.cpu.op_class::SimdFloatMult                  0      0.00%     66.48% # Class of executed instruction
system.cpu.op_class::SimdFloatMultAcc               0      0.00%     66.48% # Class of executed instruction
system.cpu.op_class::SimdFloatSqrt                  0      0.00%     66.48% # Class of executed instruction
system.cpu.op_class::MemRead                221284996     25.25%     91.73% # Class of executed instruction
system.cpu.op_class::MemWrite                72478544      8.27%    100.00% # Class of executed instruction
system.cpu.op_class::IprAccess                      0      0.00%    100.00% # Class of executed instruction
system.cpu.op_class::InstPrefetch                   0      0.00%    100.00% # Class of executed instruction
system.cpu.op_class::total                  876313791                       # Class of executed instruction
system.cpu.dcache.tags.replacements          10214979                       # number of replacements
system.cpu.dcache.tags.tagsinuse          2047.309352                       # Cycle average of tags in use
system.cpu.dcache.tags.total_refs           283566706                       # Total number of references to valid blocks.
system.cpu.dcache.tags.sampled_refs          10217027                       # Sample count of references to valid blocks.
system.cpu.dcache.tags.avg_refs             27.754327                       # Average number of references to valid blocks.
system.cpu.dcache.tags.warmup_cycle        1262801500                       # Cycle when the warmup percentage was hit.
system.cpu.dcache.tags.occ_blocks::cpu.data  2047.309352                       # Average occupied blocks per requestor
system.cpu.dcache.tags.occ_percent::cpu.data     0.999663                       # Average percentage of cache occupancy
system.cpu.dcache.tags.occ_percent::total     0.999663                       # Average percentage of cache occupancy
system.cpu.dcache.tags.occ_task_id_blocks::1024         2048                       # Occupied blocks per task id
system.cpu.dcache.tags.age_task_id_blocks_1024::0            1                       # Occupied blocks per task id
system.cpu.dcache.tags.age_task_id_blocks_1024::1          607                       # Occupied blocks per task id
system.cpu.dcache.tags.age_task_id_blocks_1024::2         1247                       # Occupied blocks per task id
system.cpu.dcache.tags.age_task_id_blocks_1024::3          190                       # Occupied blocks per task id
system.cpu.dcache.tags.age_task_id_blocks_1024::4            3                       # Occupied blocks per task id
system.cpu.dcache.tags.occ_task_id_percent::1024            1                       # Percentage of cache occupancy per task id
system.cpu.dcache.tags.tag_accesses         597784493                       # Number of tag accesses
system.cpu.dcache.tags.data_accesses        597784493                       # Number of data accesses
system.cpu.dcache.ReadReq_hits::cpu.data    211420403                       # number of ReadReq hits
system.cpu.dcache.ReadReq_hits::total       211420403                       # number of ReadReq hits
system.cpu.dcache.WriteReq_hits::cpu.data     72146303                       # number of WriteReq hits
system.cpu.dcache.WriteReq_hits::total       72146303                       # number of WriteReq hits
system.cpu.dcache.demand_hits::cpu.data     283566706                       # number of demand (read+write) hits
system.cpu.dcache.demand_hits::total        283566706                       # number of demand (read+write) hits
system.cpu.dcache.overall_hits::cpu.data    283566706                       # number of overall hits
system.cpu.dcache.overall_hits::total       283566706                       # number of overall hits
system.cpu.dcache.ReadReq_misses::cpu.data      9878722                       # number of ReadReq misses
system.cpu.dcache.ReadReq_misses::total       9878722                       # number of ReadReq misses
system.cpu.dcache.WriteReq_misses::cpu.data       338305                       # number of WriteReq misses
system.cpu.dcache.WriteReq_misses::total       338305                       # number of WriteReq misses
system.cpu.dcache.demand_misses::cpu.data     10217027                       # number of demand (read+write) misses
system.cpu.dcache.demand_misses::total       10217027                       # number of demand (read+write) misses
system.cpu.dcache.overall_misses::cpu.data     10217027                       # number of overall misses
system.cpu.dcache.overall_misses::total      10217027                       # number of overall misses
system.cpu.dcache.ReadReq_miss_latency::cpu.data 644994064500                       # number of ReadReq miss cycles
system.cpu.dcache.ReadReq_miss_latency::total 644994064500                       # number of ReadReq miss cycles
system.cpu.dcache.WriteReq_miss_latency::cpu.data  19031105000                       # number of WriteReq miss cycles
system.cpu.dcache.WriteReq_miss_latency::total  19031105000                       # number of WriteReq miss cycles
system.cpu.dcache.demand_miss_latency::cpu.data 664025169500                       # number of demand (read+write) miss cycles
system.cpu.dcache.demand_miss_latency::total 664025169500                       # number of demand (read+write) miss cycles
system.cpu.dcache.overall_miss_latency::cpu.data 664025169500                       # number of overall miss cycles
system.cpu.dcache.overall_miss_latency::total 664025169500                       # number of overall miss cycles
system.cpu.dcache.ReadReq_accesses::cpu.data    221299125                       # number of ReadReq accesses(hits+misses)
system.cpu.dcache.ReadReq_accesses::total    221299125                       # number of ReadReq accesses(hits+misses)
system.cpu.dcache.WriteReq_accesses::cpu.data     72484608                       # number of WriteReq accesses(hits+misses)
system.cpu.dcache.WriteReq_accesses::total     72484608                       # number of WriteReq accesses(hits+misses)
system.cpu.dcache.demand_accesses::cpu.data    293783733                       # number of demand (read+write) accesses
system.cpu.dcache.demand_accesses::total    293783733                       # number of demand (read+write) accesses
system.cpu.dcache.overall_accesses::cpu.data    293783733                       # number of overall (read+write) accesses
system.cpu.dcache.overall_accesses::total    293783733                       # number of overall (read+write) accesses
system.cpu.dcache.ReadReq_miss_rate::cpu.data     0.044640                       # miss rate for ReadReq accesses
system.cpu.dcache.ReadReq_miss_rate::total     0.044640                       # miss rate for ReadReq accesses
system.cpu.dcache.WriteReq_miss_rate::cpu.data     0.004667                       # miss rate for WriteReq accesses
system.cpu.dcache.WriteReq_miss_rate::total     0.004667                       # miss rate for WriteReq accesses
system.cpu.dcache.demand_miss_rate::cpu.data     0.034777                       # miss rate for demand accesses
system.cpu.dcache.demand_miss_rate::total     0.034777                       # miss rate for demand accesses
system.cpu.dcache.overall_miss_rate::cpu.data     0.034777                       # miss rate for overall accesses
system.cpu.dcache.overall_miss_rate::total     0.034777                       # miss rate for overall accesses
system.cpu.dcache.ReadReq_avg_miss_latency::cpu.data 65291.245619                       # average ReadReq miss latency
system.cpu.dcache.ReadReq_avg_miss_latency::total 65291.245619                       # average ReadReq miss latency
system.cpu.dcache.WriteReq_avg_miss_latency::cpu.data 56254.282378                       # average WriteReq miss latency
system.cpu.dcache.WriteReq_avg_miss_latency::total 56254.282378                       # average WriteReq miss latency
system.cpu.dcache.demand_avg_miss_latency::cpu.data 64992.014751                       # average overall miss latency
system.cpu.dcache.demand_avg_miss_latency::total 64992.014751                       # average overall miss latency
system.cpu.dcache.overall_avg_miss_latency::cpu.data 64992.014751                       # average overall miss latency
system.cpu.dcache.overall_avg_miss_latency::total 64992.014751                       # average overall miss latency
system.cpu.dcache.blocked_cycles::no_mshrs            0                       # number of cycles access was blocked
system.cpu.dcache.blocked_cycles::no_targets            0                       # number of cycles access was blocked
system.cpu.dcache.blocked::no_mshrs                 0                       # number of cycles access was blocked
system.cpu.dcache.blocked::no_targets               0                       # number of cycles access was blocked
system.cpu.dcache.avg_blocked_cycles::no_mshrs          nan                       # average number of cycles each access was blocked
system.cpu.dcache.avg_blocked_cycles::no_targets          nan                       # average number of cycles each access was blocked
system.cpu.dcache.fast_writes                       0                       # number of fast writes performed
system.cpu.dcache.cache_copies                      0                       # number of cache copies performed
system.cpu.dcache.writebacks::writebacks      2502088                       # number of writebacks
system.cpu.dcache.writebacks::total           2502088                       # number of writebacks
system.cpu.dcache.ReadReq_mshr_misses::cpu.data      9878722                       # number of ReadReq MSHR misses
system.cpu.dcache.ReadReq_mshr_misses::total      9878722                       # number of ReadReq MSHR misses
system.cpu.dcache.WriteReq_mshr_misses::cpu.data       338305                       # number of WriteReq MSHR misses
system.cpu.dcache.WriteReq_mshr_misses::total       338305                       # number of WriteReq MSHR misses
system.cpu.dcache.demand_mshr_misses::cpu.data     10217027                       # number of demand (read+write) MSHR misses
system.cpu.dcache.demand_mshr_misses::total     10217027                       # number of demand (read+write) MSHR misses
system.cpu.dcache.overall_mshr_misses::cpu.data     10217027                       # number of overall MSHR misses
system.cpu.dcache.overall_mshr_misses::total     10217027                       # number of overall MSHR misses
system.cpu.dcache.ReadReq_mshr_miss_latency::cpu.data 635115342500                       # number of ReadReq MSHR miss cycles
system.cpu.dcache.ReadReq_mshr_miss_latency::total 635115342500                       # number of ReadReq MSHR miss cycles
system.cpu.dcache.WriteReq_mshr_miss_latency::cpu.data  18692800000                       # number of WriteReq MSHR miss cycles
system.cpu.dcache.WriteReq_mshr_miss_latency::total  18692800000                       # number of WriteReq MSHR miss cycles
system.cpu.dcache.demand_mshr_miss_latency::cpu.data 653808142500                       # number of demand (read+write) MSHR miss cycles
system.cpu.dcache.demand_mshr_miss_latency::total 653808142500                       # number of demand (read+write) MSHR miss cycles
system.cpu.dcache.overall_mshr_miss_latency::cpu.data 653808142500                       # number of overall MSHR miss cycles
system.cpu.dcache.overall_mshr_miss_latency::total 653808142500                       # number of overall MSHR miss cycles
system.cpu.dcache.ReadReq_mshr_miss_rate::cpu.data     0.044640                       # mshr miss rate for ReadReq accesses
system.cpu.dcache.ReadReq_mshr_miss_rate::total     0.044640                       # mshr miss rate for ReadReq accesses
system.cpu.dcache.WriteReq_mshr_miss_rate::cpu.data     0.004667                       # mshr miss rate for WriteReq accesses
system.cpu.dcache.WriteReq_mshr_miss_rate::total     0.004667                       # mshr miss rate for WriteReq accesses
system.cpu.dcache.demand_mshr_miss_rate::cpu.data     0.034777                       # mshr miss rate for demand accesses
system.cpu.dcache.demand_mshr_miss_rate::total     0.034777                       # mshr miss rate for demand accesses
system.cpu.dcache.overall_mshr_miss_rate::cpu.data     0.034777                       # mshr miss rate for overall accesses
system.cpu.dcache.overall_mshr_miss_rate::total     0.034777                       # mshr miss rate for overall accesses
system.cpu.dcache.ReadReq_avg_mshr_miss_latency::cpu.data 64291.245619                       # average ReadReq mshr miss latency
system.cpu.dcache.ReadReq_avg_mshr_miss_latency::total 64291.245619                       # average ReadReq mshr miss latency
system.cpu.dcache.WriteReq_avg_mshr_miss_latency::cpu.data 55254.282378                       # average WriteReq mshr miss latency
system.cpu.dcache.WriteReq_avg_mshr_miss_latency::total 55254.282378                       # average WriteReq mshr miss latency
system.cpu.dcache.demand_avg_mshr_miss_latency::cpu.data 63992.014751                       # average overall mshr miss latency
system.cpu.dcache.demand_avg_mshr_miss_latency::total 63992.014751                       # average overall mshr miss latency
system.cpu.dcache.overall_avg_mshr_miss_latency::cpu.data 63992.014751                       # average overall mshr miss latency
system.cpu.dcache.overall_avg_mshr_miss_latency::total 63992.014751                       # average overall mshr miss latency
system.cpu.dcache.no_allocate_misses                0                       # Number of misses that were no-allocate
system.cpu.dtb_walker_cache.tags.replacements            0                       # number of replacements
system.cpu.dtb_walker_cache.tags.tagsinuse            0                       # Cycle average of tags in use
system.cpu.dtb_walker_cache.tags.total_refs            0                       # Total number of references to valid blocks.
system.cpu.dtb_walker_cache.tags.sampled_refs            0                       # Sample count of references to valid blocks.
system.cpu.dtb_walker_cache.tags.avg_refs          nan                       # Average number of references to valid blocks.
system.cpu.dtb_walker_cache.tags.warmup_cycle            0                       # Cycle when the warmup percentage was hit.
system.cpu.dtb_walker_cache.tags.tag_accesses            0                       # Number of tag accesses
system.cpu.dtb_walker_cache.tags.data_accesses            0                       # Number of data accesses
system.cpu.dtb_walker_cache.blocked_cycles::no_mshrs            0                       # number of cycles access was blocked
system.cpu.dtb_walker_cache.blocked_cycles::no_targets            0                       # number of cycles access was blocked
system.cpu.dtb_walker_cache.blocked::no_mshrs            0                       # number of cycles access was blocked
system.cpu.dtb_walker_cache.blocked::no_targets            0                       # number of cycles access was blocked
system.cpu.dtb_walker_cache.avg_blocked_cycles::no_mshrs          nan                       # average number of cycles each access was blocked
system.cpu.dtb_walker_cache.avg_blocked_cycles::no_targets          nan                       # average number of cycles each access was blocked
system.cpu.dtb_walker_cache.fast_writes             0                       # number of fast writes performed
system.cpu.dtb_walker_cache.cache_copies            0                       # number of cache copies performed
system.cpu.dtb_walker_cache.no_allocate_misses            0                       # Number of misses that were no-allocate
system.cpu.icache.tags.replacements                80                       # number of replacements
system.cpu.icache.tags.tagsinuse           581.286620                       # Cycle average of tags in use
system.cpu.icache.tags.total_refs           677317240                       # Total number of references to valid blocks.
system.cpu.icache.tags.sampled_refs               694                       # Sample count of references to valid blocks.
system.cpu.icache.tags.avg_refs          975961.440922                       # Average number of references to valid blocks.
system.cpu.icache.tags.warmup_cycle                 0                       # Cycle when the warmup percentage was hit.
system.cpu.icache.tags.occ_blocks::cpu.inst   581.286620                       # Average occupied blocks per requestor
system.cpu.icache.tags.occ_percent::cpu.inst     0.283831                       # Average percentage of cache occupancy
system.cpu.icache.tags.occ_percent::total     0.283831                       # Average percentage of cache occupancy
system.cpu.icache.tags.occ_task_id_blocks::1024          614                       # Occupied blocks per task id
system.cpu.icache.tags.age_task_id_blocks_1024::4          614                       # Occupied blocks per task id
system.cpu.icache.tags.occ_task_id_percent::1024     0.299805                       # Percentage of cache occupancy per task id
system.cpu.icache.tags.tag_accesses         677318628                       # Number of tag accesses
system.cpu.icache.tags.data_accesses        677318628                       # Number of data accesses
system.cpu.icache.ReadReq_hits::cpu.inst    677317240                       # number of ReadReq hits
system.cpu.icache.ReadReq_hits::total       677317240                       # number of ReadReq hits
system.cpu.icache.demand_hits::cpu.inst     677317240                       # number of demand (read+write) hits
system.cpu.icache.demand_hits::total        677317240                       # number of demand (read+write) hits
system.cpu.icache.overall_hits::cpu.inst    677317240                       # number of overall hits
system.cpu.icache.overall_hits::total       677317240                       # number of overall hits
system.cpu.icache.ReadReq_misses::cpu.inst          694                       # number of ReadReq misses
system.cpu.icache.ReadReq_misses::total           694                       # number of ReadReq misses
system.cpu.icache.demand_misses::cpu.inst          694                       # number of demand (read+write) misses
system.cpu.icache.demand_misses::total            694                       # number of demand (read+write) misses
system.cpu.icache.overall_misses::cpu.inst          694                       # number of overall misses
system.cpu.icache.overall_misses::total           694                       # number of overall misses
system.cpu.icache.ReadReq_miss_latency::cpu.inst     55058000                       # number of ReadReq miss cycles
system.cpu.icache.ReadReq_miss_latency::total     55058000                       # number of ReadReq miss cycles
system.cpu.icache.demand_miss_latency::cpu.inst     55058000                       # number of demand (read+write) miss cycles
system.cpu.icache.demand_miss_latency::total     55058000                       # number of demand (read+write) miss cycles
system.cpu.icache.overall_miss_latency::cpu.inst     55058000                       # number of overall miss cycles
system.cpu.icache.overall_miss_latency::total     55058000                       # number of overall miss cycles
system.cpu.icache.ReadReq_accesses::cpu.inst    677317934                       # number of ReadReq accesses(hits+misses)
system.cpu.icache.ReadReq_accesses::total    677317934                       # number of ReadReq accesses(hits+misses)
system.cpu.icache.demand_accesses::cpu.inst    677317934                       # number of demand (read+write) accesses
system.cpu.icache.demand_accesses::total    677317934                       # number of demand (read+write) accesses
system.cpu.icache.overall_accesses::cpu.inst    677317934                       # number of overall (read+write) accesses
system.cpu.icache.overall_accesses::total    677317934                       # number of overall (read+write) accesses
system.cpu.icache.ReadReq_miss_rate::cpu.inst     0.000001                       # miss rate for ReadReq accesses
system.cpu.icache.ReadReq_miss_rate::total     0.000001                       # miss rate for ReadReq accesses
system.cpu.icache.demand_miss_rate::cpu.inst     0.000001                       # miss rate for demand accesses
system.cpu.icache.demand_miss_rate::total     0.000001                       # miss rate for demand accesses
system.cpu.icache.overall_miss_rate::cpu.inst     0.000001                       # miss rate for overall accesses
system.cpu.icache.overall_miss_rate::total     0.000001                       # miss rate for overall accesses
system.cpu.icache.ReadReq_avg_miss_latency::cpu.inst 79334.293948                       # average ReadReq miss latency
system.cpu.icache.ReadReq_avg_miss_latency::total 79334.293948                       # average ReadReq miss latency
system.cpu.icache.demand_avg_miss_latency::cpu.inst 79334.293948                       # average overall miss latency
system.cpu.icache.demand_avg_miss_latency::total 79334.293948                       # average overall miss latency
system.cpu.icache.overall_avg_miss_latency::cpu.inst 79334.293948                       # average overall miss latency
system.cpu.icache.overall_avg_miss_latency::total 79334.293948                       # average overall miss latency
system.cpu.icache.blocked_cycles::no_mshrs            0                       # number of cycles access was blocked
system.cpu.icache.blocked_cycles::no_targets            0                       # number of cycles access was blocked
system.cpu.icache.blocked::no_mshrs                 0                       # number of cycles access was blocked
system.cpu.icache.blocked::no_targets               0                       # number of cycles access was blocked
system.cpu.icache.avg_blocked_cycles::no_mshrs          nan                       # average number of cycles each access was blocked
system.cpu.icache.avg_blocked_cycles::no_targets          nan                       # average number of cycles each access was blocked
system.cpu.icache.fast_writes                       0                       # number of fast writes performed
system.cpu.icache.cache_copies                      0                       # number of cache copies performed
system.cpu.icache.writebacks::writebacks           80                       # number of writebacks
system.cpu.icache.writebacks::total                80                       # number of writebacks
system.cpu.icache.ReadReq_mshr_misses::cpu.inst          694                       # number of ReadReq MSHR misses
system.cpu.icache.ReadReq_mshr_misses::total          694                       # number of ReadReq MSHR misses
system.cpu.icache.demand_mshr_misses::cpu.inst          694                       # number of demand (read+write) MSHR misses
system.cpu.icache.demand_mshr_misses::total          694                       # number of demand (read+write) MSHR misses
system.cpu.icache.overall_mshr_misses::cpu.inst          694                       # number of overall MSHR misses
system.cpu.icache.overall_mshr_misses::total          694                       # number of overall MSHR misses
system.cpu.icache.ReadReq_mshr_miss_latency::cpu.inst     54364000                       # number of ReadReq MSHR miss cycles
system.cpu.icache.ReadReq_mshr_miss_latency::total     54364000                       # number of ReadReq MSHR miss cycles
system.cpu.icache.demand_mshr_miss_latency::cpu.inst     54364000                       # number of demand (read+write) MSHR miss cycles
system.cpu.icache.demand_mshr_miss_latency::total     54364000                       # number of demand (read+write) MSHR miss cycles
system.cpu.icache.overall_mshr_miss_latency::cpu.inst     54364000                       # number of overall MSHR miss cycles
system.cpu.icache.overall_mshr_miss_latency::total     54364000                       # number of overall MSHR miss cycles
system.cpu.icache.ReadReq_mshr_miss_rate::cpu.inst     0.000001                       # mshr miss rate for ReadReq accesses
system.cpu.icache.ReadReq_mshr_miss_rate::total     0.000001                       # mshr miss rate for ReadReq accesses
system.cpu.icache.demand_mshr_miss_rate::cpu.inst     0.000001                       # mshr miss rate for demand accesses
system.cpu.icache.demand_mshr_miss_rate::total     0.000001                       # mshr miss rate for demand accesses
system.cpu.icache.overall_mshr_miss_rate::cpu.inst     0.000001                       # mshr miss rate for overall accesses
system.cpu.icache.overall_mshr_miss_rate::total     0.000001                       # mshr miss rate for overall accesses
system.cpu.icache.ReadReq_avg_mshr_miss_latency::cpu.inst 78334.293948                       # average ReadReq mshr miss latency
system.cpu.icache.ReadReq_avg_mshr_miss_latency::total 78334.293948                       # average ReadReq mshr miss latency
system.cpu.icache.demand_avg_mshr_miss_latency::cpu.inst 78334.293948                       # average overall mshr miss latency
system.cpu.icache.demand_avg_mshr_miss_latency::total 78334.293948                       # average overall mshr miss latency
system.cpu.icache.overall_avg_mshr_miss_latency::cpu.inst 78334.293948                       # average overall mshr miss latency
system.cpu.icache.overall_avg_mshr_miss_latency::total 78334.293948                       # average overall mshr miss latency
system.cpu.icache.no_allocate_misses                0                       # Number of misses that were no-allocate
system.cpu.itb_walker_cache.tags.replacements            0                       # number of replacements
system.cpu.itb_walker_cache.tags.tagsinuse            0                       # Cycle average of tags in use
system.cpu.itb_walker_cache.tags.total_refs            0                       # Total number of references to valid blocks.
system.cpu.itb_walker_cache.tags.sampled_refs            0                       # Sample count of references to valid blocks.
system.cpu.itb_walker_cache.tags.avg_refs          nan                       # Average number of references to valid blocks.
system.cpu.itb_walker_cache.tags.warmup_cycle            0                       # Cycle when the warmup percentage was hit.
system.cpu.itb_walker_cache.tags.tag_accesses            0                       # Number of tag accesses
system.cpu.itb_walker_cache.tags.data_accesses            0                       # Number of data accesses
system.cpu.itb_walker_cache.blocked_cycles::no_mshrs            0                       # number of cycles access was blocked
system.cpu.itb_walker_cache.blocked_cycles::no_targets            0                       # number of cycles access was blocked
system.cpu.itb_walker_cache.blocked::no_mshrs            0                       # number of cycles access was blocked
system.cpu.itb_walker_cache.blocked::no_targets            0                       # number of cycles access was blocked
system.cpu.itb_walker_cache.avg_blocked_cycles::no_mshrs          nan                       # average number of cycles each access was blocked
system.cpu.itb_walker_cache.avg_blocked_cycles::no_targets          nan                       # average number of cycles each access was blocked
system.cpu.itb_walker_cache.fast_writes             0                       # number of fast writes performed
system.cpu.itb_walker_cache.cache_copies            0                       # number of cache copies performed
system.cpu.itb_walker_cache.no_allocate_misses            0                       # Number of misses that were no-allocate
system.l2.tags.replacements                   6714906                       # number of replacements
system.l2.tags.tagsinuse                 15987.376622                       # Cycle average of tags in use
system.l2.tags.total_refs                    12651449                       # Total number of references to valid blocks.
system.l2.tags.sampled_refs                   6731236                       # Sample count of references to valid blocks.
system.l2.tags.avg_refs                      1.879514                       # Average number of references to valid blocks.
system.l2.tags.warmup_cycle              330304872500                       # Cycle when the warmup percentage was hit.
system.l2.tags.occ_blocks::writebacks     3316.700936                       # Average occupied blocks per requestor
system.l2.tags.occ_blocks::cpu.inst          1.654870                       # Average occupied blocks per requestor
system.l2.tags.occ_blocks::cpu.data      12669.020815                       # Average occupied blocks per requestor
system.l2.tags.occ_percent::writebacks       0.202435                       # Average percentage of cache occupancy
system.l2.tags.occ_percent::cpu.inst         0.000101                       # Average percentage of cache occupancy
system.l2.tags.occ_percent::cpu.data         0.773256                       # Average percentage of cache occupancy
system.l2.tags.occ_percent::total            0.975792                       # Average percentage of cache occupancy
system.l2.tags.occ_task_id_blocks::1024         16330                       # Occupied blocks per task id
system.l2.tags.age_task_id_blocks_1024::1          402                       # Occupied blocks per task id
system.l2.tags.age_task_id_blocks_1024::2         3328                       # Occupied blocks per task id
system.l2.tags.age_task_id_blocks_1024::3         9645                       # Occupied blocks per task id
system.l2.tags.age_task_id_blocks_1024::4         2955                       # Occupied blocks per task id
system.l2.tags.occ_task_id_percent::1024     0.996704                       # Percentage of cache occupancy per task id
system.l2.tags.tag_accesses                  27502320                       # Number of tag accesses
system.l2.tags.data_accesses                 27502320                       # Number of data accesses
system.l2.WritebackDirty_hits::writebacks      2502088                       # number of WritebackDirty hits
system.l2.WritebackDirty_hits::total          2502088                       # number of WritebackDirty hits
system.l2.WritebackClean_hits::writebacks           79                       # number of WritebackClean hits
system.l2.WritebackClean_hits::total               79                       # number of WritebackClean hits
system.l2.ReadExReq_hits::cpu.data             128632                       # number of ReadExReq hits
system.l2.ReadExReq_hits::total                128632                       # number of ReadExReq hits
system.l2.ReadCleanReq_hits::cpu.inst              14                       # number of ReadCleanReq hits
system.l2.ReadCleanReq_hits::total                 14                       # number of ReadCleanReq hits
system.l2.ReadSharedReq_hits::cpu.data        3539128                       # number of ReadSharedReq hits
system.l2.ReadSharedReq_hits::total           3539128                       # number of ReadSharedReq hits
system.l2.demand_hits::cpu.inst                    14                       # number of demand (read+write) hits
system.l2.demand_hits::cpu.data               3667760                       # number of demand (read+write) hits
system.l2.demand_hits::total                  3667774                       # number of demand (read+write) hits
system.l2.overall_hits::cpu.inst                   14                       # number of overall hits
system.l2.overall_hits::cpu.data              3667760                       # number of overall hits
system.l2.overall_hits::total                 3667774                       # number of overall hits
system.l2.ReadExReq_misses::cpu.data           209673                       # number of ReadExReq misses
system.l2.ReadExReq_misses::total              209673                       # number of ReadExReq misses
system.l2.ReadCleanReq_misses::cpu.inst           680                       # number of ReadCleanReq misses
system.l2.ReadCleanReq_misses::total              680                       # number of ReadCleanReq misses
system.l2.ReadSharedReq_misses::cpu.data      6339594                       # number of ReadSharedReq misses
system.l2.ReadSharedReq_misses::total         6339594                       # number of ReadSharedReq misses
system.l2.demand_misses::cpu.inst                 680                       # number of demand (read+write) misses
system.l2.demand_misses::cpu.data             6549267                       # number of demand (read+write) misses
system.l2.demand_misses::total                6549947                       # number of demand (read+write) misses
system.l2.overall_misses::cpu.inst                680                       # number of overall misses
system.l2.overall_misses::cpu.data            6549267                       # number of overall misses
system.l2.overall_misses::total               6549947                       # number of overall misses
system.l2.ReadExReq_miss_latency::cpu.data  16834705000                       # number of ReadExReq miss cycles
system.l2.ReadExReq_miss_latency::total   16834705000                       # number of ReadExReq miss cycles
system.l2.ReadCleanReq_miss_latency::cpu.inst     53173000                       # number of ReadCleanReq miss cycles
system.l2.ReadCleanReq_miss_latency::total     53173000                       # number of ReadCleanReq miss cycles
system.l2.ReadSharedReq_miss_latency::cpu.data 583136414500                       # number of ReadSharedReq miss cycles
system.l2.ReadSharedReq_miss_latency::total 583136414500                       # number of ReadSharedReq miss cycles
system.l2.demand_miss_latency::cpu.inst      53173000                       # number of demand (read+write) miss cycles
system.l2.demand_miss_latency::cpu.data  599971119500                       # number of demand (read+write) miss cycles
system.l2.demand_miss_latency::total     600024292500                       # number of demand (read+write) miss cycles
system.l2.overall_miss_latency::cpu.inst     53173000                       # number of overall miss cycles
system.l2.overall_miss_latency::cpu.data 599971119500                       # number of overall miss cycles
system.l2.overall_miss_latency::total    600024292500                       # number of overall miss cycles
system.l2.WritebackDirty_accesses::writebacks      2502088                       # number of WritebackDirty accesses(hits+misses)
system.l2.WritebackDirty_accesses::total      2502088                       # number of WritebackDirty accesses(hits+misses)
system.l2.WritebackClean_accesses::writebacks           79                       # number of WritebackClean accesses(hits+misses)
system.l2.WritebackClean_accesses::total           79                       # number of WritebackClean accesses(hits+misses)
system.l2.ReadExReq_accesses::cpu.data         338305                       # number of ReadExReq accesses(hits+misses)
system.l2.ReadExReq_accesses::total            338305                       # number of ReadExReq accesses(hits+misses)
system.l2.ReadCleanReq_accesses::cpu.inst          694                       # number of ReadCleanReq accesses(hits+misses)
system.l2.ReadCleanReq_accesses::total            694                       # number of ReadCleanReq accesses(hits+misses)
system.l2.ReadSharedReq_accesses::cpu.data      9878722                       # number of ReadSharedReq accesses(hits+misses)
system.l2.ReadSharedReq_accesses::total       9878722                       # number of ReadSharedReq accesses(hits+misses)
system.l2.demand_accesses::cpu.inst               694                       # number of demand (read+write) accesses
system.l2.demand_accesses::cpu.data          10217027                       # number of demand (read+write) accesses
system.l2.demand_accesses::total             10217721                       # number of demand (read+write) accesses
system.l2.overall_accesses::cpu.inst              694                       # number of overall (read+write) accesses
system.l2.overall_accesses::cpu.data         10217027                       # number of overall (read+write) accesses
system.l2.overall_accesses::total            10217721                       # number of overall (read+write) accesses
system.l2.ReadExReq_miss_rate::cpu.data      0.619775                       # miss rate for ReadExReq accesses
system.l2.ReadExReq_miss_rate::total         0.619775                       # miss rate for ReadExReq accesses
system.l2.ReadCleanReq_miss_rate::cpu.inst     0.979827                       # miss rate for ReadCleanReq accesses
system.l2.ReadCleanReq_miss_rate::total      0.979827                       # miss rate for ReadCleanReq accesses
system.l2.ReadSharedReq_miss_rate::cpu.data     0.641742                       # miss rate for ReadSharedReq accesses
system.l2.ReadSharedReq_miss_rate::total     0.641742                       # miss rate for ReadSharedReq accesses
system.l2.demand_miss_rate::cpu.inst         0.979827                       # miss rate for demand accesses
system.l2.demand_miss_rate::cpu.data         0.641015                       # miss rate for demand accesses
system.l2.demand_miss_rate::total            0.641038                       # miss rate for demand accesses
system.l2.overall_miss_rate::cpu.inst        0.979827                       # miss rate for overall accesses
system.l2.overall_miss_rate::cpu.data        0.641015                       # miss rate for overall accesses
system.l2.overall_miss_rate::total           0.641038                       # miss rate for overall accesses
system.l2.ReadExReq_avg_miss_latency::cpu.data 80290.285349                       # average ReadExReq miss latency
system.l2.ReadExReq_avg_miss_latency::total 80290.285349                       # average ReadExReq miss latency
system.l2.ReadCleanReq_avg_miss_latency::cpu.inst 78195.588235                       # average ReadCleanReq miss latency
system.l2.ReadCleanReq_avg_miss_latency::total 78195.588235                       # average ReadCleanReq miss latency
system.l2.ReadSharedReq_avg_miss_latency::cpu.data 91983.242854                       # average ReadSharedReq miss latency
system.l2.ReadSharedReq_avg_miss_latency::total 91983.242854                       # average ReadSharedReq miss latency
system.l2.demand_avg_miss_latency::cpu.inst 78195.588235                       # average overall miss latency
system.l2.demand_avg_miss_latency::cpu.data 91608.896003                       # average overall miss latency
system.l2.demand_avg_miss_latency::total 91607.503465                       # average overall miss latency
system.l2.overall_avg_miss_latency::cpu.inst 78195.588235                       # average overall miss latency
system.l2.overall_avg_miss_latency::cpu.data 91608.896003                       # average overall miss latency
system.l2.overall_avg_miss_latency::total 91607.503465                       # average overall miss latency
system.l2.blocked_cycles::no_mshrs                  0                       # number of cycles access was blocked
system.l2.blocked_cycles::no_targets                0                       # number of cycles access was blocked
system.l2.blocked::no_mshrs                         0                       # number of cycles access was blocked
system.l2.blocked::no_targets                       0                       # number of cycles access was blocked
system.l2.avg_blocked_cycles::no_mshrs            nan                       # average number of cycles each access was blocked
system.l2.avg_blocked_cycles::no_targets          nan                       # average number of cycles each access was blocked
system.l2.fast_writes                               0                       # number of fast writes performed
system.l2.cache_copies                              0                       # number of cache copies performed
system.l2.writebacks::writebacks              1115869                       # number of writebacks
system.l2.writebacks::total                   1115869                       # number of writebacks
system.l2.CleanEvict_mshr_misses::writebacks       711519                       # number of CleanEvict MSHR misses
system.l2.CleanEvict_mshr_misses::total        711519                       # number of CleanEvict MSHR misses
system.l2.ReadExReq_mshr_misses::cpu.data       209673                       # number of ReadExReq MSHR misses
system.l2.ReadExReq_mshr_misses::total         209673                       # number of ReadExReq MSHR misses
system.l2.ReadCleanReq_mshr_misses::cpu.inst          680                       # number of ReadCleanReq MSHR misses
system.l2.ReadCleanReq_mshr_misses::total          680                       # number of ReadCleanReq MSHR misses
system.l2.ReadSharedReq_mshr_misses::cpu.data      6339594                       # number of ReadSharedReq MSHR misses
system.l2.ReadSharedReq_mshr_misses::total      6339594                       # number of ReadSharedReq MSHR misses
system.l2.demand_mshr_misses::cpu.inst            680                       # number of demand (read+write) MSHR misses
system.l2.demand_mshr_misses::cpu.data        6549267                       # number of demand (read+write) MSHR misses
system.l2.demand_mshr_misses::total           6549947                       # number of demand (read+write) MSHR misses
system.l2.overall_mshr_misses::cpu.inst           680                       # number of overall MSHR misses
system.l2.overall_mshr_misses::cpu.data       6549267                       # number of overall MSHR misses
system.l2.overall_mshr_misses::total          6549947                       # number of overall MSHR misses
system.l2.ReadExReq_mshr_miss_latency::cpu.data  14737975000                       # number of ReadExReq MSHR miss cycles
system.l2.ReadExReq_mshr_miss_latency::total  14737975000                       # number of ReadExReq MSHR miss cycles
system.l2.ReadCleanReq_mshr_miss_latency::cpu.inst     46373000                       # number of ReadCleanReq MSHR miss cycles
system.l2.ReadCleanReq_mshr_miss_latency::total     46373000                       # number of ReadCleanReq MSHR miss cycles
system.l2.ReadSharedReq_mshr_miss_latency::cpu.data 519740474500                       # number of ReadSharedReq MSHR miss cycles
system.l2.ReadSharedReq_mshr_miss_latency::total 519740474500                       # number of ReadSharedReq MSHR miss cycles
system.l2.demand_mshr_miss_latency::cpu.inst     46373000                       # number of demand (read+write) MSHR miss cycles
system.l2.demand_mshr_miss_latency::cpu.data 534478449500                       # number of demand (read+write) MSHR miss cycles
system.l2.demand_mshr_miss_latency::total 534524822500                       # number of demand (read+write) MSHR miss cycles
system.l2.overall_mshr_miss_latency::cpu.inst     46373000                       # number of overall MSHR miss cycles
system.l2.overall_mshr_miss_latency::cpu.data 534478449500                       # number of overall MSHR miss cycles
system.l2.overall_mshr_miss_latency::total 534524822500                       # number of overall MSHR miss cycles
system.l2.CleanEvict_mshr_miss_rate::writebacks          inf                       # mshr miss rate for CleanEvict accesses
system.l2.CleanEvict_mshr_miss_rate::total          inf                       # mshr miss rate for CleanEvict accesses
system.l2.ReadExReq_mshr_miss_rate::cpu.data     0.619775                       # mshr miss rate for ReadExReq accesses
system.l2.ReadExReq_mshr_miss_rate::total     0.619775                       # mshr miss rate for ReadExReq accesses
system.l2.ReadCleanReq_mshr_miss_rate::cpu.inst     0.979827                       # mshr miss rate for ReadCleanReq accesses
system.l2.ReadCleanReq_mshr_miss_rate::total     0.979827                       # mshr miss rate for ReadCleanReq accesses
system.l2.ReadSharedReq_mshr_miss_rate::cpu.data     0.641742                       # mshr miss rate for ReadSharedReq accesses
system.l2.ReadSharedReq_mshr_miss_rate::total     0.641742                       # mshr miss rate for ReadSharedReq accesses
system.l2.demand_mshr_miss_rate::cpu.inst     0.979827                       # mshr miss rate for demand accesses
system.l2.demand_mshr_miss_rate::cpu.data     0.641015                       # mshr miss rate for demand accesses
system.l2.demand_mshr_miss_rate::total       0.641038                       # mshr miss rate for demand accesses
system.l2.overall_mshr_miss_rate::cpu.inst     0.979827                       # mshr miss rate for overall accesses
system.l2.overall_mshr_miss_rate::cpu.data     0.641015                       # mshr miss rate for overall accesses
system.l2.overall_mshr_miss_rate::total      0.641038                       # mshr miss rate for overall accesses
system.l2.ReadExReq_avg_mshr_miss_latency::cpu.data 70290.285349                       # average ReadExReq mshr miss latency
system.l2.ReadExReq_avg_mshr_miss_latency::total 70290.285349                       # average ReadExReq mshr miss latency
system.l2.ReadCleanReq_avg_mshr_miss_latency::cpu.inst 68195.588235                       # average ReadCleanReq mshr miss latency
system.l2.ReadCleanReq_avg_mshr_miss_latency::total 68195.588235                       # average ReadCleanReq mshr miss latency
system.l2.ReadSharedReq_avg_mshr_miss_latency::cpu.data 81983.242854                       # average ReadSharedReq mshr miss latency
system.l2.ReadSharedReq_avg_mshr_miss_latency::total 81983.242854                       # average ReadSharedReq mshr miss latency
system.l2.demand_avg_mshr_miss_latency::cpu.inst 68195.588235                       # average overall mshr miss latency
system.l2.demand_avg_mshr_miss_latency::cpu.data 81608.896003                       # average overall mshr miss latency
system.l2.demand_avg_mshr_miss_latency::total 81607.503465                       # average overall mshr miss latency
system.l2.overall_avg_mshr_miss_latency::cpu.inst 68195.588235                       # average overall mshr miss latency
system.l2.overall_avg_mshr_miss_latency::cpu.data 81608.896003                       # average overall mshr miss latency
system.l2.overall_avg_mshr_miss_latency::total 81607.503465                       # average overall mshr miss latency
system.l2.no_allocate_misses                        0                       # Number of misses that were no-allocate
system.membus.trans_dist::ReadResp            6340274                       # Transaction distribution
system.membus.trans_dist::WritebackDirty      1115869                       # Transaction distribution
system.membus.trans_dist::CleanEvict          5416996                       # Transaction distribution
system.membus.trans_dist::ReadExReq            209673                       # Transaction distribution
system.membus.trans_dist::ReadExResp           209673                       # Transaction distribution
system.membus.trans_dist::ReadSharedReq       6340274                       # Transaction distribution
system.membus.pkt_count_system.l2.mem_side::system.mem_ctrls.port     19632759                       # Packet count per connected master and slave (bytes)
system.membus.pkt_count_system.l2.mem_side::total     19632759                       # Packet count per connected master and slave (bytes)
system.membus.pkt_count::total               19632759                       # Packet count per connected master and slave (bytes)
system.membus.pkt_size_system.l2.mem_side::system.mem_ctrls.port    490612224                       # Cumulative packet size per connected master and slave (bytes)
system.membus.pkt_size_system.l2.mem_side::total    490612224                       # Cumulative packet size per connected master and slave (bytes)
system.membus.pkt_size::total               490612224                       # Cumulative packet size per connected master and slave (bytes)
system.membus.snoops                                0                       # Total snoops (count)
system.membus.snoop_fanout::samples          13082812                       # Request fanout histogram
system.membus.snoop_fanout::mean                    0                       # Request fanout histogram
system.membus.snoop_fanout::stdev                   0                       # Request fanout histogram
system.membus.snoop_fanout::underflows              0      0.00%      0.00% # Request fanout histogram
system.membus.snoop_fanout::0                13082812    100.00%    100.00% # Request fanout histogram
system.membus.snoop_fanout::1                       0      0.00%    100.00% # Request fanout histogram
system.membus.snoop_fanout::overflows               0      0.00%    100.00% # Request fanout histogram
system.membus.snoop_fanout::min_value               0                       # Request fanout histogram
system.membus.snoop_fanout::max_value               0                       # Request fanout histogram
system.membus.snoop_fanout::total            13082812                       # Request fanout histogram
system.membus.reqLayer2.occupancy         17554983500                       # Layer occupancy (ticks)
system.membus.reqLayer2.utilization               1.1                       # Layer utilization (%)
system.membus.respLayer1.occupancy        36543059250                       # Layer occupancy (ticks)
system.membus.respLayer1.utilization              2.2                       # Layer utilization (%)
system.tol2bus.snoop_filter.tot_requests     20432780                       # Total number of requests made to the snoop filter.
system.tol2bus.snoop_filter.hit_single_requests     10215059                       # Number of requests hitting in the snoop filter with a single holder of the requested data.
system.tol2bus.snoop_filter.hit_multi_requests            1                       # Number of requests hitting in the snoop filter with multiple (>1) holders of the requested data.
system.tol2bus.snoop_filter.tot_snoops         893560                       # Total number of snoops made to the snoop filter.
system.tol2bus.snoop_filter.hit_single_snoops       893560                       # Number of snoops hitting in the snoop filter with a single holder of the requested data.
system.tol2bus.snoop_filter.hit_multi_snoops            0                       # Number of snoops hitting in the snoop filter with multiple (>1) holders of the requested data.
system.tol2bus.trans_dist::ReadResp           9879416                       # Transaction distribution
system.tol2bus.trans_dist::WritebackDirty      3617957                       # Transaction distribution
system.tol2bus.trans_dist::WritebackClean           79                       # Transaction distribution
system.tol2bus.trans_dist::CleanEvict        13311928                       # Transaction distribution
system.tol2bus.trans_dist::ReadExReq           338305                       # Transaction distribution
system.tol2bus.trans_dist::ReadExResp          338305                       # Transaction distribution
system.tol2bus.trans_dist::ReadCleanReq           694                       # Transaction distribution
system.tol2bus.trans_dist::ReadSharedReq      9878722                       # Transaction distribution
system.tol2bus.pkt_count_system.cpu.icache.mem_side::system.l2.cpu_side         1467                       # Packet count per connected master and slave (bytes)
system.tol2bus.pkt_count_system.cpu.dcache.mem_side::system.l2.cpu_side     30649033                       # Packet count per connected master and slave (bytes)
system.tol2bus.pkt_count::total              30650500                       # Packet count per connected master and slave (bytes)
system.tol2bus.pkt_size_system.cpu.icache.mem_side::system.l2.cpu_side        49472                       # Cumulative packet size per connected master and slave (bytes)
system.tol2bus.pkt_size_system.cpu.dcache.mem_side::system.l2.cpu_side    814023360                       # Cumulative packet size per connected master and slave (bytes)
system.tol2bus.pkt_size::total              814072832                       # Cumulative packet size per connected master and slave (bytes)
system.tol2bus.snoops                         6714906                       # Total snoops (count)
system.tol2bus.snoop_fanout::samples         16932627                       # Request fanout histogram
system.tol2bus.snoop_fanout::mean            0.052772                       # Request fanout histogram
system.tol2bus.snoop_fanout::stdev           0.223577                       # Request fanout histogram
system.tol2bus.snoop_fanout::underflows             0      0.00%      0.00% # Request fanout histogram
system.tol2bus.snoop_fanout::0               16039066     94.72%     94.72% # Request fanout histogram
system.tol2bus.snoop_fanout::1                 893561      5.28%    100.00% # Request fanout histogram
system.tol2bus.snoop_fanout::2                      0      0.00%    100.00% # Request fanout histogram
system.tol2bus.snoop_fanout::3                      0      0.00%    100.00% # Request fanout histogram
system.tol2bus.snoop_fanout::4                      0      0.00%    100.00% # Request fanout histogram
system.tol2bus.snoop_fanout::overflows              0      0.00%    100.00% # Request fanout histogram
system.tol2bus.snoop_fanout::min_value              0                       # Request fanout histogram
system.tol2bus.snoop_fanout::max_value              1                       # Request fanout histogram
system.tol2bus.snoop_fanout::total           16932627                       # Request fanout histogram
system.tol2bus.reqLayer0.occupancy        12718558000                       # Layer occupancy (ticks)
system.tol2bus.reqLayer0.utilization              0.8                       # Layer utilization (%)
system.tol2bus.respLayer0.occupancy           1041000                       # Layer occupancy (ticks)
system.tol2bus.respLayer0.utilization             0.0                       # Layer utilization (%)
system.tol2bus.respLayer1.occupancy       15325540500                       # Layer occupancy (ticks)
system.tol2bus.respLayer1.utilization             0.9                       # Layer utilization (%)

---------- End Simulation Statistics   ----------
