
---------- Begin Simulation Statistics ----------
sim_seconds                                  1.685235                       # Number of seconds simulated
sim_ticks                                1685234825500                       # Number of ticks simulated
final_tick                               1685234825500                       # Number of ticks from beginning of simulation (restored from checkpoints and never reset)
sim_freq                                 1000000000000                       # Frequency of simulated ticks
host_inst_rate                                 605789                       # Simulator instruction rate (inst/s)
host_op_rate                                  1061723                       # Simulator op (including micro ops) rate (op/s)
host_tick_rate                             2041794512                       # Simulator tick rate (ticks/s)
host_mem_usage                                 825116                       # Number of bytes of host memory used
host_seconds                                   825.37                       # Real time elapsed on the host
sim_insts                                   500000000                       # Number of instructions simulated
sim_ops                                     876313787                       # Number of ops (including micro ops) simulated
system.voltage_domain.voltage                       1                       # Voltage in Volts
system.clk_domain.clock                          1000                       # Clock period in ticks
system.mem_ctrls.bytes_read::cpu.inst           43200                       # Number of bytes read from this memory
system.mem_ctrls.bytes_read::cpu.data       447329856                       # Number of bytes read from this memory
system.mem_ctrls.bytes_read::total          447373056                       # Number of bytes read from this memory
system.mem_ctrls.bytes_inst_read::cpu.inst        43200                       # Number of instructions bytes read from this memory
system.mem_ctrls.bytes_inst_read::total         43200                       # Number of instructions bytes read from this memory
system.mem_ctrls.bytes_written::writebacks     76248192                       # Number of bytes written to this memory
system.mem_ctrls.bytes_written::total        76248192                       # Number of bytes written to this memory
system.mem_ctrls.num_reads::cpu.inst              675                       # Number of read requests responded to by this memory
system.mem_ctrls.num_reads::cpu.data          6989529                       # Number of read requests responded to by this memory
system.mem_ctrls.num_reads::total             6990204                       # Number of read requests responded to by this memory
system.mem_ctrls.num_writes::writebacks       1191378                       # Number of write requests responded to by this memory
system.mem_ctrls.num_writes::total            1191378                       # Number of write requests responded to by this memory
system.mem_ctrls.bw_read::cpu.inst              25634                       # Total read bandwidth from this memory (bytes/s)
system.mem_ctrls.bw_read::cpu.data          265440667                       # Total read bandwidth from this memory (bytes/s)
system.mem_ctrls.bw_read::total             265466301                       # Total read bandwidth from this memory (bytes/s)
system.mem_ctrls.bw_inst_read::cpu.inst         25634                       # Instruction read bandwidth from this memory (bytes/s)
system.mem_ctrls.bw_inst_read::total            25634                       # Instruction read bandwidth from this memory (bytes/s)
system.mem_ctrls.bw_write::writebacks        45244847                       # Write bandwidth from this memory (bytes/s)
system.mem_ctrls.bw_write::total             45244847                       # Write bandwidth from this memory (bytes/s)
system.mem_ctrls.bw_total::writebacks        45244847                       # Total bandwidth to/from this memory (bytes/s)
system.mem_ctrls.bw_total::cpu.inst             25634                       # Total bandwidth to/from this memory (bytes/s)
system.mem_ctrls.bw_total::cpu.data         265440667                       # Total bandwidth to/from this memory (bytes/s)
system.mem_ctrls.bw_total::total            310711148                       # Total bandwidth to/from this memory (bytes/s)
system.mem_ctrls.readReqs                     6990204                       # Number of read requests accepted
system.mem_ctrls.writeReqs                    1191378                       # Number of write requests accepted
system.mem_ctrls.readBursts                   6990204                       # Number of DRAM read bursts, including those serviced by the write queue
system.mem_ctrls.writeBursts                  1191378                       # Number of DRAM write bursts, including those merged in the write queue
system.mem_ctrls.bytesReadDRAM              446911808                       # Total number of bytes read from DRAM
system.mem_ctrls.bytesReadWrQ                  461248                       # Total number of bytes read from write queue
system.mem_ctrls.bytesWritten                76246528                       # Total number of bytes written to DRAM
system.mem_ctrls.bytesReadSys               447373056                       # Total read bytes from the system interface side
system.mem_ctrls.bytesWrittenSys             76248192                       # Total written bytes from the system interface side
system.mem_ctrls.servicedByWrQ                   7207                       # Number of DRAM read bursts serviced by the write queue
system.mem_ctrls.mergedWrBursts                     0                       # Number of DRAM write bursts merged with an existing one
system.mem_ctrls.neitherReadNorWriteReqs      5789909                       # Number of requests that are neither read nor write
system.mem_ctrls.perBankRdBursts::0            447192                       # Per bank write bursts
system.mem_ctrls.perBankRdBursts::1            438083                       # Per bank write bursts
system.mem_ctrls.perBankRdBursts::2            433074                       # Per bank write bursts
system.mem_ctrls.perBankRdBursts::3            434846                       # Per bank write bursts
system.mem_ctrls.perBankRdBursts::4            426717                       # Per bank write bursts
system.mem_ctrls.perBankRdBursts::5            428877                       # Per bank write bursts
system.mem_ctrls.perBankRdBursts::6            428412                       # Per bank write bursts
system.mem_ctrls.perBankRdBursts::7            427431                       # Per bank write bursts
system.mem_ctrls.perBankRdBursts::8            434699                       # Per bank write bursts
system.mem_ctrls.perBankRdBursts::9            430311                       # Per bank write bursts
system.mem_ctrls.perBankRdBursts::10           432847                       # Per bank write bursts
system.mem_ctrls.perBankRdBursts::11           438830                       # Per bank write bursts
system.mem_ctrls.perBankRdBursts::12           442327                       # Per bank write bursts
system.mem_ctrls.perBankRdBursts::13           447516                       # Per bank write bursts
system.mem_ctrls.perBankRdBursts::14           447272                       # Per bank write bursts
system.mem_ctrls.perBankRdBursts::15           444563                       # Per bank write bursts
system.mem_ctrls.perBankWrBursts::0             76757                       # Per bank write bursts
system.mem_ctrls.perBankWrBursts::1             76455                       # Per bank write bursts
system.mem_ctrls.perBankWrBursts::2             76188                       # Per bank write bursts
system.mem_ctrls.perBankWrBursts::3             77172                       # Per bank write bursts
system.mem_ctrls.perBankWrBursts::4             73382                       # Per bank write bursts
system.mem_ctrls.perBankWrBursts::5             70914                       # Per bank write bursts
system.mem_ctrls.perBankWrBursts::6             72979                       # Per bank write bursts
system.mem_ctrls.perBankWrBursts::7             71278                       # Per bank write bursts
system.mem_ctrls.perBankWrBursts::8             72197                       # Per bank write bursts
system.mem_ctrls.perBankWrBursts::9             71058                       # Per bank write bursts
system.mem_ctrls.perBankWrBursts::10            71401                       # Per bank write bursts
system.mem_ctrls.perBankWrBursts::11            74669                       # Per bank write bursts
system.mem_ctrls.perBankWrBursts::12            76964                       # Per bank write bursts
system.mem_ctrls.perBankWrBursts::13            76896                       # Per bank write bursts
system.mem_ctrls.perBankWrBursts::14            76399                       # Per bank write bursts
system.mem_ctrls.perBankWrBursts::15            76643                       # Per bank write bursts
system.mem_ctrls.numRdRetry                         0                       # Number of times read queue was full causing retry
system.mem_ctrls.numWrRetry                         0                       # Number of times write queue was full causing retry
system.mem_ctrls.totGap                  1685217615500                       # Total gap between requests
system.mem_ctrls.readPktSize::0                     0                       # Read request sizes (log2)
system.mem_ctrls.readPktSize::1                     0                       # Read request sizes (log2)
system.mem_ctrls.readPktSize::2                     0                       # Read request sizes (log2)
system.mem_ctrls.readPktSize::3                     0                       # Read request sizes (log2)
system.mem_ctrls.readPktSize::4                     0                       # Read request sizes (log2)
system.mem_ctrls.readPktSize::5                     0                       # Read request sizes (log2)
system.mem_ctrls.readPktSize::6               6990204                       # Read request sizes (log2)
system.mem_ctrls.writePktSize::0                    0                       # Write request sizes (log2)
system.mem_ctrls.writePktSize::1                    0                       # Write request sizes (log2)
system.mem_ctrls.writePktSize::2                    0                       # Write request sizes (log2)
system.mem_ctrls.writePktSize::3                    0                       # Write request sizes (log2)
system.mem_ctrls.writePktSize::4                    0                       # Write request sizes (log2)
system.mem_ctrls.writePktSize::5                    0                       # Write request sizes (log2)
system.mem_ctrls.writePktSize::6              1191378                       # Write request sizes (log2)
system.mem_ctrls.rdQLenPdf::0                 6982997                       # What read queue length does an incoming req see
system.mem_ctrls.rdQLenPdf::1                       0                       # What read queue length does an incoming req see
system.mem_ctrls.rdQLenPdf::2                       0                       # What read queue length does an incoming req see
system.mem_ctrls.rdQLenPdf::3                       0                       # What read queue length does an incoming req see
system.mem_ctrls.rdQLenPdf::4                       0                       # What read queue length does an incoming req see
system.mem_ctrls.rdQLenPdf::5                       0                       # What read queue length does an incoming req see
system.mem_ctrls.rdQLenPdf::6                       0                       # What read queue length does an incoming req see
system.mem_ctrls.rdQLenPdf::7                       0                       # What read queue length does an incoming req see
system.mem_ctrls.rdQLenPdf::8                       0                       # What read queue length does an incoming req see
system.mem_ctrls.rdQLenPdf::9                       0                       # What read queue length does an incoming req see
system.mem_ctrls.rdQLenPdf::10                      0                       # What read queue length does an incoming req see
system.mem_ctrls.rdQLenPdf::11                      0                       # What read queue length does an incoming req see
system.mem_ctrls.rdQLenPdf::12                      0                       # What read queue length does an incoming req see
system.mem_ctrls.rdQLenPdf::13                      0                       # What read queue length does an incoming req see
system.mem_ctrls.rdQLenPdf::14                      0                       # What read queue length does an incoming req see
system.mem_ctrls.rdQLenPdf::15                      0                       # What read queue length does an incoming req see
system.mem_ctrls.rdQLenPdf::16                      0                       # What read queue length does an incoming req see
system.mem_ctrls.rdQLenPdf::17                      0                       # What read queue length does an incoming req see
system.mem_ctrls.rdQLenPdf::18                      0                       # What read queue length does an incoming req see
system.mem_ctrls.rdQLenPdf::19                      0                       # What read queue length does an incoming req see
system.mem_ctrls.rdQLenPdf::20                      0                       # What read queue length does an incoming req see
system.mem_ctrls.rdQLenPdf::21                      0                       # What read queue length does an incoming req see
system.mem_ctrls.rdQLenPdf::22                      0                       # What read queue length does an incoming req see
system.mem_ctrls.rdQLenPdf::23                      0                       # What read queue length does an incoming req see
system.mem_ctrls.rdQLenPdf::24                      0                       # What read queue length does an incoming req see
system.mem_ctrls.rdQLenPdf::25                      0                       # What read queue length does an incoming req see
system.mem_ctrls.rdQLenPdf::26                      0                       # What read queue length does an incoming req see
system.mem_ctrls.rdQLenPdf::27                      0                       # What read queue length does an incoming req see
system.mem_ctrls.rdQLenPdf::28                      0                       # What read queue length does an incoming req see
system.mem_ctrls.rdQLenPdf::29                      0                       # What read queue length does an incoming req see
system.mem_ctrls.rdQLenPdf::30                      0                       # What read queue length does an incoming req see
system.mem_ctrls.rdQLenPdf::31                      0                       # What read queue length does an incoming req see
system.mem_ctrls.wrQLenPdf::0                       1                       # What write queue length does an incoming req see
system.mem_ctrls.wrQLenPdf::1                       1                       # What write queue length does an incoming req see
system.mem_ctrls.wrQLenPdf::2                       1                       # What write queue length does an incoming req see
system.mem_ctrls.wrQLenPdf::3                       1                       # What write queue length does an incoming req see
system.mem_ctrls.wrQLenPdf::4                       1                       # What write queue length does an incoming req see
system.mem_ctrls.wrQLenPdf::5                       1                       # What write queue length does an incoming req see
system.mem_ctrls.wrQLenPdf::6                       1                       # What write queue length does an incoming req see
system.mem_ctrls.wrQLenPdf::7                       1                       # What write queue length does an incoming req see
system.mem_ctrls.wrQLenPdf::8                       1                       # What write queue length does an incoming req see
system.mem_ctrls.wrQLenPdf::9                       1                       # What write queue length does an incoming req see
system.mem_ctrls.wrQLenPdf::10                      1                       # What write queue length does an incoming req see
system.mem_ctrls.wrQLenPdf::11                      1                       # What write queue length does an incoming req see
system.mem_ctrls.wrQLenPdf::12                      1                       # What write queue length does an incoming req see
system.mem_ctrls.wrQLenPdf::13                      1                       # What write queue length does an incoming req see
system.mem_ctrls.wrQLenPdf::14                      1                       # What write queue length does an incoming req see
system.mem_ctrls.wrQLenPdf::15                  28165                       # What write queue length does an incoming req see
system.mem_ctrls.wrQLenPdf::16                  28894                       # What write queue length does an incoming req see
system.mem_ctrls.wrQLenPdf::17                  70516                       # What write queue length does an incoming req see
system.mem_ctrls.wrQLenPdf::18                  70942                       # What write queue length does an incoming req see
system.mem_ctrls.wrQLenPdf::19                  70874                       # What write queue length does an incoming req see
system.mem_ctrls.wrQLenPdf::20                  70833                       # What write queue length does an incoming req see
system.mem_ctrls.wrQLenPdf::21                  70835                       # What write queue length does an incoming req see
system.mem_ctrls.wrQLenPdf::22                  70873                       # What write queue length does an incoming req see
system.mem_ctrls.wrQLenPdf::23                  70883                       # What write queue length does an incoming req see
system.mem_ctrls.wrQLenPdf::24                  70849                       # What write queue length does an incoming req see
system.mem_ctrls.wrQLenPdf::25                  70965                       # What write queue length does an incoming req see
system.mem_ctrls.wrQLenPdf::26                  70889                       # What write queue length does an incoming req see
system.mem_ctrls.wrQLenPdf::27                  71353                       # What write queue length does an incoming req see
system.mem_ctrls.wrQLenPdf::28                  71169                       # What write queue length does an incoming req see
system.mem_ctrls.wrQLenPdf::29                  70836                       # What write queue length does an incoming req see
system.mem_ctrls.wrQLenPdf::30                  70839                       # What write queue length does an incoming req see
system.mem_ctrls.wrQLenPdf::31                  70817                       # What write queue length does an incoming req see
system.mem_ctrls.wrQLenPdf::32                  70817                       # What write queue length does an incoming req see
system.mem_ctrls.wrQLenPdf::33                     14                       # What write queue length does an incoming req see
system.mem_ctrls.wrQLenPdf::34                      0                       # What write queue length does an incoming req see
system.mem_ctrls.wrQLenPdf::35                      0                       # What write queue length does an incoming req see
system.mem_ctrls.wrQLenPdf::36                      0                       # What write queue length does an incoming req see
system.mem_ctrls.wrQLenPdf::37                      0                       # What write queue length does an incoming req see
system.mem_ctrls.wrQLenPdf::38                      0                       # What write queue length does an incoming req see
system.mem_ctrls.wrQLenPdf::39                      0                       # What write queue length does an incoming req see
system.mem_ctrls.wrQLenPdf::40                      0                       # What write queue length does an incoming req see
system.mem_ctrls.wrQLenPdf::41                      0                       # What write queue length does an incoming req see
system.mem_ctrls.wrQLenPdf::42                      0                       # What write queue length does an incoming req see
system.mem_ctrls.wrQLenPdf::43                      0                       # What write queue length does an incoming req see
system.mem_ctrls.wrQLenPdf::44                      0                       # What write queue length does an incoming req see
system.mem_ctrls.wrQLenPdf::45                      0                       # What write queue length does an incoming req see
system.mem_ctrls.wrQLenPdf::46                      0                       # What write queue length does an incoming req see
system.mem_ctrls.wrQLenPdf::47                      0                       # What write queue length does an incoming req see
system.mem_ctrls.wrQLenPdf::48                      0                       # What write queue length does an incoming req see
system.mem_ctrls.wrQLenPdf::49                      0                       # What write queue length does an incoming req see
system.mem_ctrls.wrQLenPdf::50                      0                       # What write queue length does an incoming req see
system.mem_ctrls.wrQLenPdf::51                      0                       # What write queue length does an incoming req see
system.mem_ctrls.wrQLenPdf::52                      0                       # What write queue length does an incoming req see
system.mem_ctrls.wrQLenPdf::53                      0                       # What write queue length does an incoming req see
system.mem_ctrls.wrQLenPdf::54                      0                       # What write queue length does an incoming req see
system.mem_ctrls.wrQLenPdf::55                      0                       # What write queue length does an incoming req see
system.mem_ctrls.wrQLenPdf::56                      0                       # What write queue length does an incoming req see
system.mem_ctrls.wrQLenPdf::57                      0                       # What write queue length does an incoming req see
system.mem_ctrls.wrQLenPdf::58                      0                       # What write queue length does an incoming req see
system.mem_ctrls.wrQLenPdf::59                      0                       # What write queue length does an incoming req see
system.mem_ctrls.wrQLenPdf::60                      0                       # What write queue length does an incoming req see
system.mem_ctrls.wrQLenPdf::61                      0                       # What write queue length does an incoming req see
system.mem_ctrls.wrQLenPdf::62                      0                       # What write queue length does an incoming req see
system.mem_ctrls.wrQLenPdf::63                      0                       # What write queue length does an incoming req see
system.mem_ctrls.bytesPerActivate::samples      5949202                       # Bytes accessed per row activation
system.mem_ctrls.bytesPerActivate::mean     87.937565                       # Bytes accessed per row activation
system.mem_ctrls.bytesPerActivate::gmean    72.552806                       # Bytes accessed per row activation
system.mem_ctrls.bytesPerActivate::stdev   116.624124                       # Bytes accessed per row activation
system.mem_ctrls.bytesPerActivate::0-127      5318517     89.40%     89.40% # Bytes accessed per row activation
system.mem_ctrls.bytesPerActivate::128-255       443458      7.45%     96.85% # Bytes accessed per row activation
system.mem_ctrls.bytesPerActivate::256-383        52990      0.89%     97.74% # Bytes accessed per row activation
system.mem_ctrls.bytesPerActivate::384-511        22859      0.38%     98.13% # Bytes accessed per row activation
system.mem_ctrls.bytesPerActivate::512-639        15415      0.26%     98.39% # Bytes accessed per row activation
system.mem_ctrls.bytesPerActivate::640-767        14999      0.25%     98.64% # Bytes accessed per row activation
system.mem_ctrls.bytesPerActivate::768-895        14864      0.25%     98.89% # Bytes accessed per row activation
system.mem_ctrls.bytesPerActivate::896-1023         9282      0.16%     99.04% # Bytes accessed per row activation
system.mem_ctrls.bytesPerActivate::1024-1151        56818      0.96%    100.00% # Bytes accessed per row activation
system.mem_ctrls.bytesPerActivate::total      5949202                       # Bytes accessed per row activation
system.mem_ctrls.rdPerTurnAround::samples        70816                       # Reads before turning the bus around for writes
system.mem_ctrls.rdPerTurnAround::mean      98.604750                       # Reads before turning the bus around for writes
system.mem_ctrls.rdPerTurnAround::gmean     46.893306                       # Reads before turning the bus around for writes
system.mem_ctrls.rdPerTurnAround::stdev    185.656263                       # Reads before turning the bus around for writes
system.mem_ctrls.rdPerTurnAround::0-511         66999     94.61%     94.61% # Reads before turning the bus around for writes
system.mem_ctrls.rdPerTurnAround::512-1023         3451      4.87%     99.48% # Reads before turning the bus around for writes
system.mem_ctrls.rdPerTurnAround::1024-1535          351      0.50%     99.98% # Reads before turning the bus around for writes
system.mem_ctrls.rdPerTurnAround::1536-2047           13      0.02%    100.00% # Reads before turning the bus around for writes
system.mem_ctrls.rdPerTurnAround::2048-2559            1      0.00%    100.00% # Reads before turning the bus around for writes
system.mem_ctrls.rdPerTurnAround::9216-9727            1      0.00%    100.00% # Reads before turning the bus around for writes
system.mem_ctrls.rdPerTurnAround::total         70816                       # Reads before turning the bus around for writes
system.mem_ctrls.wrPerTurnAround::samples        70816                       # Writes before turning the bus around for reads
system.mem_ctrls.wrPerTurnAround::mean      16.823204                       # Writes before turning the bus around for reads
system.mem_ctrls.wrPerTurnAround::gmean     16.793650                       # Writes before turning the bus around for reads
system.mem_ctrls.wrPerTurnAround::stdev      1.005826                       # Writes before turning the bus around for reads
system.mem_ctrls.wrPerTurnAround::16            41927     59.21%     59.21% # Writes before turning the bus around for reads
system.mem_ctrls.wrPerTurnAround::17              713      1.01%     60.21% # Writes before turning the bus around for reads
system.mem_ctrls.wrPerTurnAround::18            26974     38.09%     98.30% # Writes before turning the bus around for reads
system.mem_ctrls.wrPerTurnAround::19             1174      1.66%     99.96% # Writes before turning the bus around for reads
system.mem_ctrls.wrPerTurnAround::20               27      0.04%    100.00% # Writes before turning the bus around for reads
system.mem_ctrls.wrPerTurnAround::21                1      0.00%    100.00% # Writes before turning the bus around for reads
system.mem_ctrls.wrPerTurnAround::total         70816                       # Writes before turning the bus around for reads
system.mem_ctrls.totQLat                 156626995750                       # Total ticks spent queuing
system.mem_ctrls.totMemAccLat            287558189500                       # Total ticks spent from burst creation until serviced by the DRAM
system.mem_ctrls.totBusLat                34914985000                       # Total ticks spent in databus transfers
system.mem_ctrls.avgQLat                     22429.77                       # Average queueing delay per DRAM burst
system.mem_ctrls.avgBusLat                    5000.00                       # Average bus latency per DRAM burst
system.mem_ctrls.avgMemAccLat                41179.77                       # Average memory access latency per DRAM burst
system.mem_ctrls.avgRdBW                       265.19                       # Average DRAM read bandwidth in MiByte/s
system.mem_ctrls.avgWrBW                        45.24                       # Average achieved write bandwidth in MiByte/s
system.mem_ctrls.avgRdBWSys                    265.47                       # Average system read bandwidth in MiByte/s
system.mem_ctrls.avgWrBWSys                     45.24                       # Average system write bandwidth in MiByte/s
system.mem_ctrls.peakBW                      12800.00                       # Theoretical peak bandwidth in MiByte/s
system.mem_ctrls.busUtil                         2.43                       # Data bus utilization in percentage
system.mem_ctrls.busUtilRead                     2.07                       # Data bus utilization in percentage for reads
system.mem_ctrls.busUtilWrite                    0.35                       # Data bus utilization in percentage for writes
system.mem_ctrls.avgRdQLen                       1.00                       # Average read queue length when enqueuing
system.mem_ctrls.avgWrQLen                      24.77                       # Average write queue length when enqueuing
system.mem_ctrls.readRowHits                  1526681                       # Number of row buffer hits during reads
system.mem_ctrls.writeRowHits                  698466                       # Number of row buffer hits during writes
system.mem_ctrls.readRowHitRate                 21.86                       # Row buffer hit rate for reads
system.mem_ctrls.writeRowHitRate                58.63                       # Row buffer hit rate for writes
system.mem_ctrls.avgGap                     205976.99                       # Average gap between requests
system.mem_ctrls.pageHitRate                    27.22                       # Row buffer hit rate, read and write combined
system.mem_ctrls_0.actEnergy              22291189200                       # Energy for activate commands per rank (pJ)
system.mem_ctrls_0.preEnergy              12162851250                       # Energy for precharge commands per rank (pJ)
system.mem_ctrls_0.readEnergy             27024129600                       # Energy for read commands per rank (pJ)
system.mem_ctrls_0.writeEnergy             3856410000                       # Energy for write commands per rank (pJ)
system.mem_ctrls_0.refreshEnergy         110071200720                       # Energy for refresh commands per rank (pJ)
system.mem_ctrls_0.actBackEnergy         873841086945                       # Energy for active background per rank (pJ)
system.mem_ctrls_0.preBackEnergy         244612433250                       # Energy for precharge background per rank (pJ)
system.mem_ctrls_0.totalEnergy           1293859300965                       # Total energy per rank (pJ)
system.mem_ctrls_0.averagePower            767.762930                       # Core power per rank (mW)
system.mem_ctrls_0.memoryStateTime::IDLE 401787183000                       # Time in different power states
system.mem_ctrls_0.memoryStateTime::REF   56273620000                       # Time in different power states
system.mem_ctrls_0.memoryStateTime::PRE_PDN            0                       # Time in different power states
system.mem_ctrls_0.memoryStateTime::ACT  1227172048250                       # Time in different power states
system.mem_ctrls_0.memoryStateTime::ACT_PDN            0                       # Time in different power states
system.mem_ctrls_1.actEnergy              22684777920                       # Energy for activate commands per rank (pJ)
system.mem_ctrls_1.preEnergy              12377607000                       # Energy for precharge commands per rank (pJ)
system.mem_ctrls_1.readEnergy             27443247000                       # Energy for read commands per rank (pJ)
system.mem_ctrls_1.writeEnergy             3863550960                       # Energy for write commands per rank (pJ)
system.mem_ctrls_1.refreshEnergy         110071200720                       # Energy for refresh commands per rank (pJ)
system.mem_ctrls_1.actBackEnergy         873339727770                       # Energy for active background per rank (pJ)
system.mem_ctrls_1.preBackEnergy         245052222000                       # Energy for precharge background per rank (pJ)
system.mem_ctrls_1.totalEnergy           1294832333370                       # Total energy per rank (pJ)
system.mem_ctrls_1.averagePower            768.340317                       # Core power per rank (mW)
system.mem_ctrls_1.memoryStateTime::IDLE 402279315750                       # Time in different power states
system.mem_ctrls_1.memoryStateTime::REF   56273620000                       # Time in different power states
system.mem_ctrls_1.memoryStateTime::PRE_PDN            0                       # Time in different power states
system.mem_ctrls_1.memoryStateTime::ACT  1226679915500                       # Time in different power states
system.mem_ctrls_1.memoryStateTime::ACT_PDN            0                       # Time in different power states
system.cpu_voltage_domain.voltage                   1                       # Voltage in Volts
system.cpu_clk_domain.clock                       500                       # Clock period in ticks
system.cpu.apic_clk_domain.clock                 8000                       # Clock period in ticks
system.cpu.workload.num_syscalls                  168                       # Number of system calls
system.cpu.numCycles                       3370469651                       # number of cpu cycles simulated
system.cpu.numWorkItemsStarted                      0                       # number of work items this cpu started
system.cpu.numWorkItemsCompleted                    0                       # number of work items this cpu completed
system.cpu.committedInsts                   500000000                       # Number of instructions committed
system.cpu.committedOps                     876313787                       # Number of ops (including micro ops) committed
system.cpu.num_int_alu_accesses             872966684                       # Number of integer alu accesses
system.cpu.num_fp_alu_accesses                2882231                       # Number of float alu accesses
system.cpu.num_func_calls                    11025254                       # number of times a function call or return occured
system.cpu.num_conditional_control_insts     75981010                       # number of instructions that are conditional controls
system.cpu.num_int_insts                    872966684                       # number of integer instructions
system.cpu.num_fp_insts                       2882231                       # number of float instructions
system.cpu.num_int_register_reads          1835046968                       # number of times the integer registers were read
system.cpu.num_int_register_writes          703076421                       # number of times the integer registers were written
system.cpu.num_fp_register_reads              4386063                       # number of times the floating registers were read
system.cpu.num_fp_register_writes             2464405                       # number of times the floating registers were written
system.cpu.num_cc_register_reads            441654672                       # number of times the CC registers were read
system.cpu.num_cc_register_writes           253505512                       # number of times the CC registers were written
system.cpu.num_mem_refs                     293763601                       # number of memory refs
system.cpu.num_load_insts                   221285044                       # Number of load instructions
system.cpu.num_store_insts                   72478557                       # Number of store instructions
system.cpu.num_idle_cycles                          0                       # Number of idle cycles
system.cpu.num_busy_cycles                 3370469651                       # Number of busy cycles
system.cpu.not_idle_fraction                        1                       # Percentage of non-idle cycles
system.cpu.idle_fraction                            0                       # Percentage of idle cycles
system.cpu.Branches                          97901002                       # Number of branches fetched
system.cpu.op_class::No_OpClass                939429      0.11%      0.11% # Class of executed instruction
system.cpu.op_class::IntAlu                 578420256     66.01%     66.11% # Class of executed instruction
system.cpu.op_class::IntMult                   907073      0.10%     66.22% # Class of executed instruction
system.cpu.op_class::IntDiv                        42      0.00%     66.22% # Class of executed instruction
system.cpu.op_class::FloatAdd                 2283386      0.26%     66.48% # Class of executed instruction
system.cpu.op_class::FloatCmp                       0      0.00%     66.48% # Class of executed instruction
system.cpu.op_class::FloatCvt                       0      0.00%     66.48% # Class of executed instruction
system.cpu.op_class::FloatMult                      0      0.00%     66.48% # Class of executed instruction
system.cpu.op_class::FloatDiv                       0      0.00%     66.48% # Class of executed instruction
system.cpu.op_class::FloatSqrt                      0      0.00%     66.48% # Class of executed instruction
system.cpu.op_class::SimdAdd                        0      0.00%     66.48% # Class of executed instruction
system.cpu.op_class::SimdAddAcc                     0      0.00%     66.48% # Class of executed instruction
system.cpu.op_class::SimdAlu                        0      0.00%     66.48% # Class of executed instruction
system.cpu.op_class::SimdCmp                        0      0.00%     66.48% # Class of executed instruction
system.cpu.op_class::SimdCvt                        0      0.00%     66.48% # Class of executed instruction
system.cpu.op_class::SimdMisc                       0      0.00%     66.48% # Class of executed instruction
system.cpu.op_class::SimdMult                       0      0.00%     66.48% # Class of executed instruction
system.cpu.op_class::SimdMultAcc                    0      0.00%     66.48% # Class of executed instruction
system.cpu.op_class::SimdShift                      0      0.00%     66.48% # Class of executed instruction
system.cpu.op_class::SimdShiftAcc                   0      0.00%     66.48% # Class of executed instruction
system.cpu.op_class::SimdSqrt                       0      0.00%     66.48% # Class of executed instruction
system.cpu.op_class::SimdFloatAdd                   0      0.00%     66.48% # Class of executed instruction
system.cpu.op_class::SimdFloatAlu                   0      0.00%     66.48% # Class of executed instruction
system.cpu.op_class::SimdFloatCmp                   0      0.00%     66.48% # Class of executed instruction
system.cpu.op_class::SimdFloatCvt                   0      0.00%     66.48% # Class of executed instruction
system.cpu.op_class::SimdFloatDiv                   0      0.00%     66.48% # Class of executed instruction
system.cpu.op_class::SimdFloatMisc                  0      0.00%     66.48% # Class of executed instruction
system.cpu.op_class::SimdFloatMult                  0      0.00%     66.48% # Class of executed instruction
system.cpu.op_class::SimdFloatMultAcc               0      0.00%     66.48% # Class of executed instruction
system.cpu.op_class::SimdFloatSqrt                  0      0.00%     66.48% # Class of executed instruction
system.cpu.op_class::MemRead                221285044     25.25%     91.73% # Class of executed instruction
system.cpu.op_class::MemWrite                72478557      8.27%    100.00% # Class of executed instruction
system.cpu.op_class::IprAccess                      0      0.00%    100.00% # Class of executed instruction
system.cpu.op_class::InstPrefetch                   0      0.00%    100.00% # Class of executed instruction
system.cpu.op_class::total                  876313787                       # Class of executed instruction
system.cpu.dcache.tags.replacements          12499794                       # number of replacements
system.cpu.dcache.tags.tagsinuse          1023.839891                       # Cycle average of tags in use
system.cpu.dcache.tags.total_refs           281276911                       # Total number of references to valid blocks.
system.cpu.dcache.tags.sampled_refs          12500818                       # Sample count of references to valid blocks.
system.cpu.dcache.tags.avg_refs             22.500680                       # Average number of references to valid blocks.
system.cpu.dcache.tags.warmup_cycle         669207500                       # Cycle when the warmup percentage was hit.
system.cpu.dcache.tags.occ_blocks::cpu.data  1023.839891                       # Average occupied blocks per requestor
system.cpu.dcache.tags.occ_percent::cpu.data     0.999844                       # Average percentage of cache occupancy
system.cpu.dcache.tags.occ_percent::total     0.999844                       # Average percentage of cache occupancy
system.cpu.dcache.tags.occ_task_id_blocks::1024         1024                       # Occupied blocks per task id
system.cpu.dcache.tags.age_task_id_blocks_1024::0            5                       # Occupied blocks per task id
system.cpu.dcache.tags.age_task_id_blocks_1024::1          647                       # Occupied blocks per task id
system.cpu.dcache.tags.age_task_id_blocks_1024::2          359                       # Occupied blocks per task id
system.cpu.dcache.tags.age_task_id_blocks_1024::3           11                       # Occupied blocks per task id
system.cpu.dcache.tags.age_task_id_blocks_1024::4            2                       # Occupied blocks per task id
system.cpu.dcache.tags.occ_task_id_percent::1024            1                       # Percentage of cache occupancy per task id
system.cpu.dcache.tags.tag_accesses        1187611734                       # Number of tag accesses
system.cpu.dcache.tags.data_accesses       1187611734                       # Number of data accesses
system.cpu.dcache.ReadReq_hits::cpu.data    209214783                       # number of ReadReq hits
system.cpu.dcache.ReadReq_hits::total       209214783                       # number of ReadReq hits
system.cpu.dcache.WriteReq_hits::cpu.data     72062128                       # number of WriteReq hits
system.cpu.dcache.WriteReq_hits::total       72062128                       # number of WriteReq hits
system.cpu.dcache.demand_hits::cpu.data     281276911                       # number of demand (read+write) hits
system.cpu.dcache.demand_hits::total        281276911                       # number of demand (read+write) hits
system.cpu.dcache.overall_hits::cpu.data    281276911                       # number of overall hits
system.cpu.dcache.overall_hits::total       281276911                       # number of overall hits
system.cpu.dcache.ReadReq_misses::cpu.data     12084388                       # number of ReadReq misses
system.cpu.dcache.ReadReq_misses::total      12084388                       # number of ReadReq misses
system.cpu.dcache.WriteReq_misses::cpu.data       416430                       # number of WriteReq misses
system.cpu.dcache.WriteReq_misses::total       416430                       # number of WriteReq misses
system.cpu.dcache.demand_misses::cpu.data     12500818                       # number of demand (read+write) misses
system.cpu.dcache.demand_misses::total       12500818                       # number of demand (read+write) misses
system.cpu.dcache.overall_misses::cpu.data     12500818                       # number of overall misses
system.cpu.dcache.overall_misses::total      12500818                       # number of overall misses
system.cpu.dcache.ReadReq_miss_latency::cpu.data 705818888000                       # number of ReadReq miss cycles
system.cpu.dcache.ReadReq_miss_latency::total 705818888000                       # number of ReadReq miss cycles
system.cpu.dcache.WriteReq_miss_latency::cpu.data  20774589000                       # number of WriteReq miss cycles
system.cpu.dcache.WriteReq_miss_latency::total  20774589000                       # number of WriteReq miss cycles
system.cpu.dcache.demand_miss_latency::cpu.data 726593477000                       # number of demand (read+write) miss cycles
system.cpu.dcache.demand_miss_latency::total 726593477000                       # number of demand (read+write) miss cycles
system.cpu.dcache.overall_miss_latency::cpu.data 726593477000                       # number of overall miss cycles
system.cpu.dcache.overall_miss_latency::total 726593477000                       # number of overall miss cycles
system.cpu.dcache.ReadReq_accesses::cpu.data    221299171                       # number of ReadReq accesses(hits+misses)
system.cpu.dcache.ReadReq_accesses::total    221299171                       # number of ReadReq accesses(hits+misses)
system.cpu.dcache.WriteReq_accesses::cpu.data     72478558                       # number of WriteReq accesses(hits+misses)
system.cpu.dcache.WriteReq_accesses::total     72478558                       # number of WriteReq accesses(hits+misses)
system.cpu.dcache.demand_accesses::cpu.data    293777729                       # number of demand (read+write) accesses
system.cpu.dcache.demand_accesses::total    293777729                       # number of demand (read+write) accesses
system.cpu.dcache.overall_accesses::cpu.data    293777729                       # number of overall (read+write) accesses
system.cpu.dcache.overall_accesses::total    293777729                       # number of overall (read+write) accesses
system.cpu.dcache.ReadReq_miss_rate::cpu.data     0.054607                       # miss rate for ReadReq accesses
system.cpu.dcache.ReadReq_miss_rate::total     0.054607                       # miss rate for ReadReq accesses
system.cpu.dcache.WriteReq_miss_rate::cpu.data     0.005746                       # miss rate for WriteReq accesses
system.cpu.dcache.WriteReq_miss_rate::total     0.005746                       # miss rate for WriteReq accesses
system.cpu.dcache.demand_miss_rate::cpu.data     0.042552                       # miss rate for demand accesses
system.cpu.dcache.demand_miss_rate::total     0.042552                       # miss rate for demand accesses
system.cpu.dcache.overall_miss_rate::cpu.data     0.042552                       # miss rate for overall accesses
system.cpu.dcache.overall_miss_rate::total     0.042552                       # miss rate for overall accesses
system.cpu.dcache.ReadReq_avg_miss_latency::cpu.data 58407.499660                       # average ReadReq miss latency
system.cpu.dcache.ReadReq_avg_miss_latency::total 58407.499660                       # average ReadReq miss latency
system.cpu.dcache.WriteReq_avg_miss_latency::cpu.data 49887.349615                       # average WriteReq miss latency
system.cpu.dcache.WriteReq_avg_miss_latency::total 49887.349615                       # average WriteReq miss latency
system.cpu.dcache.demand_avg_miss_latency::cpu.data 58123.674547                       # average overall miss latency
system.cpu.dcache.demand_avg_miss_latency::total 58123.674547                       # average overall miss latency
system.cpu.dcache.overall_avg_miss_latency::cpu.data 58123.674547                       # average overall miss latency
system.cpu.dcache.overall_avg_miss_latency::total 58123.674547                       # average overall miss latency
system.cpu.dcache.blocked_cycles::no_mshrs            0                       # number of cycles access was blocked
system.cpu.dcache.blocked_cycles::no_targets            0                       # number of cycles access was blocked
system.cpu.dcache.blocked::no_mshrs                 0                       # number of cycles access was blocked
system.cpu.dcache.blocked::no_targets               0                       # number of cycles access was blocked
system.cpu.dcache.avg_blocked_cycles::no_mshrs          nan                       # average number of cycles each access was blocked
system.cpu.dcache.avg_blocked_cycles::no_targets          nan                       # average number of cycles each access was blocked
system.cpu.dcache.fast_writes                       0                       # number of fast writes performed
system.cpu.dcache.cache_copies                      0                       # number of cache copies performed
system.cpu.dcache.writebacks::writebacks      2445573                       # number of writebacks
system.cpu.dcache.writebacks::total           2445573                       # number of writebacks
system.cpu.dcache.ReadReq_mshr_misses::cpu.data     12084388                       # number of ReadReq MSHR misses
system.cpu.dcache.ReadReq_mshr_misses::total     12084388                       # number of ReadReq MSHR misses
system.cpu.dcache.WriteReq_mshr_misses::cpu.data       416430                       # number of WriteReq MSHR misses
system.cpu.dcache.WriteReq_mshr_misses::total       416430                       # number of WriteReq MSHR misses
system.cpu.dcache.demand_mshr_misses::cpu.data     12500818                       # number of demand (read+write) MSHR misses
system.cpu.dcache.demand_mshr_misses::total     12500818                       # number of demand (read+write) MSHR misses
system.cpu.dcache.overall_mshr_misses::cpu.data     12500818                       # number of overall MSHR misses
system.cpu.dcache.overall_mshr_misses::total     12500818                       # number of overall MSHR misses
system.cpu.dcache.ReadReq_mshr_miss_latency::cpu.data 693734500000                       # number of ReadReq MSHR miss cycles
system.cpu.dcache.ReadReq_mshr_miss_latency::total 693734500000                       # number of ReadReq MSHR miss cycles
system.cpu.dcache.WriteReq_mshr_miss_latency::cpu.data  20358159000                       # number of WriteReq MSHR miss cycles
system.cpu.dcache.WriteReq_mshr_miss_latency::total  20358159000                       # number of WriteReq MSHR miss cycles
system.cpu.dcache.demand_mshr_miss_latency::cpu.data 714092659000                       # number of demand (read+write) MSHR miss cycles
system.cpu.dcache.demand_mshr_miss_latency::total 714092659000                       # number of demand (read+write) MSHR miss cycles
system.cpu.dcache.overall_mshr_miss_latency::cpu.data 714092659000                       # number of overall MSHR miss cycles
system.cpu.dcache.overall_mshr_miss_latency::total 714092659000                       # number of overall MSHR miss cycles
system.cpu.dcache.ReadReq_mshr_miss_rate::cpu.data     0.054607                       # mshr miss rate for ReadReq accesses
system.cpu.dcache.ReadReq_mshr_miss_rate::total     0.054607                       # mshr miss rate for ReadReq accesses
system.cpu.dcache.WriteReq_mshr_miss_rate::cpu.data     0.005746                       # mshr miss rate for WriteReq accesses
system.cpu.dcache.WriteReq_mshr_miss_rate::total     0.005746                       # mshr miss rate for WriteReq accesses
system.cpu.dcache.demand_mshr_miss_rate::cpu.data     0.042552                       # mshr miss rate for demand accesses
system.cpu.dcache.demand_mshr_miss_rate::total     0.042552                       # mshr miss rate for demand accesses
system.cpu.dcache.overall_mshr_miss_rate::cpu.data     0.042552                       # mshr miss rate for overall accesses
system.cpu.dcache.overall_mshr_miss_rate::total     0.042552                       # mshr miss rate for overall accesses
system.cpu.dcache.ReadReq_avg_mshr_miss_latency::cpu.data 57407.499660                       # average ReadReq mshr miss latency
system.cpu.dcache.ReadReq_avg_mshr_miss_latency::total 57407.499660                       # average ReadReq mshr miss latency
system.cpu.dcache.WriteReq_avg_mshr_miss_latency::cpu.data 48887.349615                       # average WriteReq mshr miss latency
system.cpu.dcache.WriteReq_avg_mshr_miss_latency::total 48887.349615                       # average WriteReq mshr miss latency
system.cpu.dcache.demand_avg_mshr_miss_latency::cpu.data 57123.674547                       # average overall mshr miss latency
system.cpu.dcache.demand_avg_mshr_miss_latency::total 57123.674547                       # average overall mshr miss latency
system.cpu.dcache.overall_avg_mshr_miss_latency::cpu.data 57123.674547                       # average overall mshr miss latency
system.cpu.dcache.overall_avg_mshr_miss_latency::total 57123.674547                       # average overall mshr miss latency
system.cpu.dcache.no_allocate_misses                0                       # Number of misses that were no-allocate
system.cpu.dtb_walker_cache.tags.replacements            0                       # number of replacements
system.cpu.dtb_walker_cache.tags.tagsinuse            0                       # Cycle average of tags in use
system.cpu.dtb_walker_cache.tags.total_refs            0                       # Total number of references to valid blocks.
system.cpu.dtb_walker_cache.tags.sampled_refs            0                       # Sample count of references to valid blocks.
system.cpu.dtb_walker_cache.tags.avg_refs          nan                       # Average number of references to valid blocks.
system.cpu.dtb_walker_cache.tags.warmup_cycle            0                       # Cycle when the warmup percentage was hit.
system.cpu.dtb_walker_cache.tags.tag_accesses            0                       # Number of tag accesses
system.cpu.dtb_walker_cache.tags.data_accesses            0                       # Number of data accesses
system.cpu.dtb_walker_cache.blocked_cycles::no_mshrs            0                       # number of cycles access was blocked
system.cpu.dtb_walker_cache.blocked_cycles::no_targets            0                       # number of cycles access was blocked
system.cpu.dtb_walker_cache.blocked::no_mshrs            0                       # number of cycles access was blocked
system.cpu.dtb_walker_cache.blocked::no_targets            0                       # number of cycles access was blocked
system.cpu.dtb_walker_cache.avg_blocked_cycles::no_mshrs          nan                       # average number of cycles each access was blocked
system.cpu.dtb_walker_cache.avg_blocked_cycles::no_targets          nan                       # average number of cycles each access was blocked
system.cpu.dtb_walker_cache.fast_writes             0                       # number of fast writes performed
system.cpu.dtb_walker_cache.cache_copies            0                       # number of cache copies performed
system.cpu.dtb_walker_cache.no_allocate_misses            0                       # Number of misses that were no-allocate
system.cpu.icache.tags.replacements                 8                       # number of replacements
system.cpu.icache.tags.tagsinuse           631.918593                       # Cycle average of tags in use
system.cpu.icache.tags.total_refs           677317270                       # Total number of references to valid blocks.
system.cpu.icache.tags.sampled_refs               676                       # Sample count of references to valid blocks.
system.cpu.icache.tags.avg_refs          1001948.624260                       # Average number of references to valid blocks.
system.cpu.icache.tags.warmup_cycle                 0                       # Cycle when the warmup percentage was hit.
system.cpu.icache.tags.occ_blocks::cpu.inst   631.918593                       # Average occupied blocks per requestor
system.cpu.icache.tags.occ_percent::cpu.inst     0.617108                       # Average percentage of cache occupancy
system.cpu.icache.tags.occ_percent::total     0.617108                       # Average percentage of cache occupancy
system.cpu.icache.tags.occ_task_id_blocks::1024          668                       # Occupied blocks per task id
system.cpu.icache.tags.age_task_id_blocks_1024::4          668                       # Occupied blocks per task id
system.cpu.icache.tags.occ_task_id_percent::1024     0.652344                       # Percentage of cache occupancy per task id
system.cpu.icache.tags.tag_accesses        5418544244                       # Number of tag accesses
system.cpu.icache.tags.data_accesses       5418544244                       # Number of data accesses
system.cpu.icache.ReadReq_hits::cpu.inst    677317270                       # number of ReadReq hits
system.cpu.icache.ReadReq_hits::total       677317270                       # number of ReadReq hits
system.cpu.icache.demand_hits::cpu.inst     677317270                       # number of demand (read+write) hits
system.cpu.icache.demand_hits::total        677317270                       # number of demand (read+write) hits
system.cpu.icache.overall_hits::cpu.inst    677317270                       # number of overall hits
system.cpu.icache.overall_hits::total       677317270                       # number of overall hits
system.cpu.icache.ReadReq_misses::cpu.inst          676                       # number of ReadReq misses
system.cpu.icache.ReadReq_misses::total           676                       # number of ReadReq misses
system.cpu.icache.demand_misses::cpu.inst          676                       # number of demand (read+write) misses
system.cpu.icache.demand_misses::total            676                       # number of demand (read+write) misses
system.cpu.icache.overall_misses::cpu.inst          676                       # number of overall misses
system.cpu.icache.overall_misses::total           676                       # number of overall misses
system.cpu.icache.ReadReq_miss_latency::cpu.inst     54234000                       # number of ReadReq miss cycles
system.cpu.icache.ReadReq_miss_latency::total     54234000                       # number of ReadReq miss cycles
system.cpu.icache.demand_miss_latency::cpu.inst     54234000                       # number of demand (read+write) miss cycles
system.cpu.icache.demand_miss_latency::total     54234000                       # number of demand (read+write) miss cycles
system.cpu.icache.overall_miss_latency::cpu.inst     54234000                       # number of overall miss cycles
system.cpu.icache.overall_miss_latency::total     54234000                       # number of overall miss cycles
system.cpu.icache.ReadReq_accesses::cpu.inst    677317946                       # number of ReadReq accesses(hits+misses)
system.cpu.icache.ReadReq_accesses::total    677317946                       # number of ReadReq accesses(hits+misses)
system.cpu.icache.demand_accesses::cpu.inst    677317946                       # number of demand (read+write) accesses
system.cpu.icache.demand_accesses::total    677317946                       # number of demand (read+write) accesses
system.cpu.icache.overall_accesses::cpu.inst    677317946                       # number of overall (read+write) accesses
system.cpu.icache.overall_accesses::total    677317946                       # number of overall (read+write) accesses
system.cpu.icache.ReadReq_miss_rate::cpu.inst     0.000001                       # miss rate for ReadReq accesses
system.cpu.icache.ReadReq_miss_rate::total     0.000001                       # miss rate for ReadReq accesses
system.cpu.icache.demand_miss_rate::cpu.inst     0.000001                       # miss rate for demand accesses
system.cpu.icache.demand_miss_rate::total     0.000001                       # miss rate for demand accesses
system.cpu.icache.overall_miss_rate::cpu.inst     0.000001                       # miss rate for overall accesses
system.cpu.icache.overall_miss_rate::total     0.000001                       # miss rate for overall accesses
system.cpu.icache.ReadReq_avg_miss_latency::cpu.inst 80227.810651                       # average ReadReq miss latency
system.cpu.icache.ReadReq_avg_miss_latency::total 80227.810651                       # average ReadReq miss latency
system.cpu.icache.demand_avg_miss_latency::cpu.inst 80227.810651                       # average overall miss latency
system.cpu.icache.demand_avg_miss_latency::total 80227.810651                       # average overall miss latency
system.cpu.icache.overall_avg_miss_latency::cpu.inst 80227.810651                       # average overall miss latency
system.cpu.icache.overall_avg_miss_latency::total 80227.810651                       # average overall miss latency
system.cpu.icache.blocked_cycles::no_mshrs            0                       # number of cycles access was blocked
system.cpu.icache.blocked_cycles::no_targets            0                       # number of cycles access was blocked
system.cpu.icache.blocked::no_mshrs                 0                       # number of cycles access was blocked
system.cpu.icache.blocked::no_targets               0                       # number of cycles access was blocked
system.cpu.icache.avg_blocked_cycles::no_mshrs          nan                       # average number of cycles each access was blocked
system.cpu.icache.avg_blocked_cycles::no_targets          nan                       # average number of cycles each access was blocked
system.cpu.icache.fast_writes                       0                       # number of fast writes performed
system.cpu.icache.cache_copies                      0                       # number of cache copies performed
system.cpu.icache.writebacks::writebacks            8                       # number of writebacks
system.cpu.icache.writebacks::total                 8                       # number of writebacks
system.cpu.icache.ReadReq_mshr_misses::cpu.inst          676                       # number of ReadReq MSHR misses
system.cpu.icache.ReadReq_mshr_misses::total          676                       # number of ReadReq MSHR misses
system.cpu.icache.demand_mshr_misses::cpu.inst          676                       # number of demand (read+write) MSHR misses
system.cpu.icache.demand_mshr_misses::total          676                       # number of demand (read+write) MSHR misses
system.cpu.icache.overall_mshr_misses::cpu.inst          676                       # number of overall MSHR misses
system.cpu.icache.overall_mshr_misses::total          676                       # number of overall MSHR misses
system.cpu.icache.ReadReq_mshr_miss_latency::cpu.inst     53558000                       # number of ReadReq MSHR miss cycles
system.cpu.icache.ReadReq_mshr_miss_latency::total     53558000                       # number of ReadReq MSHR miss cycles
system.cpu.icache.demand_mshr_miss_latency::cpu.inst     53558000                       # number of demand (read+write) MSHR miss cycles
system.cpu.icache.demand_mshr_miss_latency::total     53558000                       # number of demand (read+write) MSHR miss cycles
system.cpu.icache.overall_mshr_miss_latency::cpu.inst     53558000                       # number of overall MSHR miss cycles
system.cpu.icache.overall_mshr_miss_latency::total     53558000                       # number of overall MSHR miss cycles
system.cpu.icache.ReadReq_mshr_miss_rate::cpu.inst     0.000001                       # mshr miss rate for ReadReq accesses
system.cpu.icache.ReadReq_mshr_miss_rate::total     0.000001                       # mshr miss rate for ReadReq accesses
system.cpu.icache.demand_mshr_miss_rate::cpu.inst     0.000001                       # mshr miss rate for demand accesses
system.cpu.icache.demand_mshr_miss_rate::total     0.000001                       # mshr miss rate for demand accesses
system.cpu.icache.overall_mshr_miss_rate::cpu.inst     0.000001                       # mshr miss rate for overall accesses
system.cpu.icache.overall_mshr_miss_rate::total     0.000001                       # mshr miss rate for overall accesses
system.cpu.icache.ReadReq_avg_mshr_miss_latency::cpu.inst 79227.810651                       # average ReadReq mshr miss latency
system.cpu.icache.ReadReq_avg_mshr_miss_latency::total 79227.810651                       # average ReadReq mshr miss latency
system.cpu.icache.demand_avg_mshr_miss_latency::cpu.inst 79227.810651                       # average overall mshr miss latency
system.cpu.icache.demand_avg_mshr_miss_latency::total 79227.810651                       # average overall mshr miss latency
system.cpu.icache.overall_avg_mshr_miss_latency::cpu.inst 79227.810651                       # average overall mshr miss latency
system.cpu.icache.overall_avg_mshr_miss_latency::total 79227.810651                       # average overall mshr miss latency
system.cpu.icache.no_allocate_misses                0                       # Number of misses that were no-allocate
system.cpu.itb_walker_cache.tags.replacements            0                       # number of replacements
system.cpu.itb_walker_cache.tags.tagsinuse            0                       # Cycle average of tags in use
system.cpu.itb_walker_cache.tags.total_refs            0                       # Total number of references to valid blocks.
system.cpu.itb_walker_cache.tags.sampled_refs            0                       # Sample count of references to valid blocks.
system.cpu.itb_walker_cache.tags.avg_refs          nan                       # Average number of references to valid blocks.
system.cpu.itb_walker_cache.tags.warmup_cycle            0                       # Cycle when the warmup percentage was hit.
system.cpu.itb_walker_cache.tags.tag_accesses            0                       # Number of tag accesses
system.cpu.itb_walker_cache.tags.data_accesses            0                       # Number of data accesses
system.cpu.itb_walker_cache.blocked_cycles::no_mshrs            0                       # number of cycles access was blocked
system.cpu.itb_walker_cache.blocked_cycles::no_targets            0                       # number of cycles access was blocked
system.cpu.itb_walker_cache.blocked::no_mshrs            0                       # number of cycles access was blocked
system.cpu.itb_walker_cache.blocked::no_targets            0                       # number of cycles access was blocked
system.cpu.itb_walker_cache.avg_blocked_cycles::no_mshrs          nan                       # average number of cycles each access was blocked
system.cpu.itb_walker_cache.avg_blocked_cycles::no_targets          nan                       # average number of cycles each access was blocked
system.cpu.itb_walker_cache.fast_writes             0                       # number of fast writes performed
system.cpu.itb_walker_cache.cache_copies            0                       # number of cache copies performed
system.cpu.itb_walker_cache.no_allocate_misses            0                       # Number of misses that were no-allocate
system.l2.tags.replacements                   6986081                       # number of replacements
system.l2.tags.tagsinuse                  8179.475545                       # Cycle average of tags in use
system.l2.tags.total_refs                    17590185                       # Total number of references to valid blocks.
system.l2.tags.sampled_refs                   6994267                       # Sample count of references to valid blocks.
system.l2.tags.avg_refs                      2.514943                       # Average number of references to valid blocks.
system.l2.tags.warmup_cycle                4695617000                       # Cycle when the warmup percentage was hit.
system.l2.tags.occ_blocks::writebacks     1339.317356                       # Average occupied blocks per requestor
system.l2.tags.occ_blocks::cpu.inst          1.624036                       # Average occupied blocks per requestor
system.l2.tags.occ_blocks::cpu.data       6838.534153                       # Average occupied blocks per requestor
system.l2.tags.occ_percent::writebacks       0.163491                       # Average percentage of cache occupancy
system.l2.tags.occ_percent::cpu.inst         0.000198                       # Average percentage of cache occupancy
system.l2.tags.occ_percent::cpu.data         0.834782                       # Average percentage of cache occupancy
system.l2.tags.occ_percent::total            0.998471                       # Average percentage of cache occupancy
system.l2.tags.occ_task_id_blocks::1024          8186                       # Occupied blocks per task id
system.l2.tags.age_task_id_blocks_1024::1          423                       # Occupied blocks per task id
system.l2.tags.age_task_id_blocks_1024::2         3965                       # Occupied blocks per task id
system.l2.tags.age_task_id_blocks_1024::3         3605                       # Occupied blocks per task id
system.l2.tags.age_task_id_blocks_1024::4          193                       # Occupied blocks per task id
system.l2.tags.occ_task_id_percent::1024     0.999268                       # Percentage of cache occupancy per task id
system.l2.tags.tag_accesses              102412715017                       # Number of tag accesses
system.l2.tags.data_accesses             102412715017                       # Number of data accesses
system.l2.WritebackDirty_hits::writebacks      2445573                       # number of WritebackDirty hits
system.l2.WritebackDirty_hits::total          2445573                       # number of WritebackDirty hits
system.l2.WritebackClean_hits::writebacks            8                       # number of WritebackClean hits
system.l2.WritebackClean_hits::total                8                       # number of WritebackClean hits
system.l2.ReadExReq_hits::cpu.data             193717                       # number of ReadExReq hits
system.l2.ReadExReq_hits::total                193717                       # number of ReadExReq hits
system.l2.ReadCleanReq_hits::cpu.inst               1                       # number of ReadCleanReq hits
system.l2.ReadCleanReq_hits::total                  1                       # number of ReadCleanReq hits
system.l2.ReadSharedReq_hits::cpu.data        5317572                       # number of ReadSharedReq hits
system.l2.ReadSharedReq_hits::total           5317572                       # number of ReadSharedReq hits
system.l2.demand_hits::cpu.inst                     1                       # number of demand (read+write) hits
system.l2.demand_hits::cpu.data               5511289                       # number of demand (read+write) hits
system.l2.demand_hits::total                  5511290                       # number of demand (read+write) hits
system.l2.overall_hits::cpu.inst                    1                       # number of overall hits
system.l2.overall_hits::cpu.data              5511289                       # number of overall hits
system.l2.overall_hits::total                 5511290                       # number of overall hits
system.l2.ReadExReq_misses::cpu.data           222713                       # number of ReadExReq misses
system.l2.ReadExReq_misses::total              222713                       # number of ReadExReq misses
system.l2.ReadCleanReq_misses::cpu.inst           675                       # number of ReadCleanReq misses
system.l2.ReadCleanReq_misses::total              675                       # number of ReadCleanReq misses
system.l2.ReadSharedReq_misses::cpu.data      6766816                       # number of ReadSharedReq misses
system.l2.ReadSharedReq_misses::total         6766816                       # number of ReadSharedReq misses
system.l2.demand_misses::cpu.inst                 675                       # number of demand (read+write) misses
system.l2.demand_misses::cpu.data             6989529                       # number of demand (read+write) misses
system.l2.demand_misses::total                6990204                       # number of demand (read+write) misses
system.l2.overall_misses::cpu.inst                675                       # number of overall misses
system.l2.overall_misses::cpu.data            6989529                       # number of overall misses
system.l2.overall_misses::total               6990204                       # number of overall misses
system.l2.ReadExReq_miss_latency::cpu.data  17699485000                       # number of ReadExReq miss cycles
system.l2.ReadExReq_miss_latency::total   17699485000                       # number of ReadExReq miss cycles
system.l2.ReadCleanReq_miss_latency::cpu.inst     52531000                       # number of ReadCleanReq miss cycles
system.l2.ReadCleanReq_miss_latency::total     52531000                       # number of ReadCleanReq miss cycles
system.l2.ReadSharedReq_miss_latency::cpu.data 619773412000                       # number of ReadSharedReq miss cycles
system.l2.ReadSharedReq_miss_latency::total 619773412000                       # number of ReadSharedReq miss cycles
system.l2.demand_miss_latency::cpu.inst      52531000                       # number of demand (read+write) miss cycles
system.l2.demand_miss_latency::cpu.data  637472897000                       # number of demand (read+write) miss cycles
system.l2.demand_miss_latency::total     637525428000                       # number of demand (read+write) miss cycles
system.l2.overall_miss_latency::cpu.inst     52531000                       # number of overall miss cycles
system.l2.overall_miss_latency::cpu.data 637472897000                       # number of overall miss cycles
system.l2.overall_miss_latency::total    637525428000                       # number of overall miss cycles
system.l2.WritebackDirty_accesses::writebacks      2445573                       # number of WritebackDirty accesses(hits+misses)
system.l2.WritebackDirty_accesses::total      2445573                       # number of WritebackDirty accesses(hits+misses)
system.l2.WritebackClean_accesses::writebacks            8                       # number of WritebackClean accesses(hits+misses)
system.l2.WritebackClean_accesses::total            8                       # number of WritebackClean accesses(hits+misses)
system.l2.ReadExReq_accesses::cpu.data         416430                       # number of ReadExReq accesses(hits+misses)
system.l2.ReadExReq_accesses::total            416430                       # number of ReadExReq accesses(hits+misses)
system.l2.ReadCleanReq_accesses::cpu.inst          676                       # number of ReadCleanReq accesses(hits+misses)
system.l2.ReadCleanReq_accesses::total            676                       # number of ReadCleanReq accesses(hits+misses)
system.l2.ReadSharedReq_accesses::cpu.data     12084388                       # number of ReadSharedReq accesses(hits+misses)
system.l2.ReadSharedReq_accesses::total      12084388                       # number of ReadSharedReq accesses(hits+misses)
system.l2.demand_accesses::cpu.inst               676                       # number of demand (read+write) accesses
system.l2.demand_accesses::cpu.data          12500818                       # number of demand (read+write) accesses
system.l2.demand_accesses::total             12501494                       # number of demand (read+write) accesses
system.l2.overall_accesses::cpu.inst              676                       # number of overall (read+write) accesses
system.l2.overall_accesses::cpu.data         12500818                       # number of overall (read+write) accesses
system.l2.overall_accesses::total            12501494                       # number of overall (read+write) accesses
system.l2.ReadExReq_miss_rate::cpu.data      0.534815                       # miss rate for ReadExReq accesses
system.l2.ReadExReq_miss_rate::total         0.534815                       # miss rate for ReadExReq accesses
system.l2.ReadCleanReq_miss_rate::cpu.inst     0.998521                       # miss rate for ReadCleanReq accesses
system.l2.ReadCleanReq_miss_rate::total      0.998521                       # miss rate for ReadCleanReq accesses
system.l2.ReadSharedReq_miss_rate::cpu.data     0.559963                       # miss rate for ReadSharedReq accesses
system.l2.ReadSharedReq_miss_rate::total     0.559963                       # miss rate for ReadSharedReq accesses
system.l2.demand_miss_rate::cpu.inst         0.998521                       # miss rate for demand accesses
system.l2.demand_miss_rate::cpu.data         0.559126                       # miss rate for demand accesses
system.l2.demand_miss_rate::total            0.559149                       # miss rate for demand accesses
system.l2.overall_miss_rate::cpu.inst        0.998521                       # miss rate for overall accesses
system.l2.overall_miss_rate::cpu.data        0.559126                       # miss rate for overall accesses
system.l2.overall_miss_rate::total           0.559149                       # miss rate for overall accesses
system.l2.ReadExReq_avg_miss_latency::cpu.data 79472.168216                       # average ReadExReq miss latency
system.l2.ReadExReq_avg_miss_latency::total 79472.168216                       # average ReadExReq miss latency
system.l2.ReadCleanReq_avg_miss_latency::cpu.inst 77823.703704                       # average ReadCleanReq miss latency
system.l2.ReadCleanReq_avg_miss_latency::total 77823.703704                       # average ReadCleanReq miss latency
system.l2.ReadSharedReq_avg_miss_latency::cpu.data 91590.108553                       # average ReadSharedReq miss latency
system.l2.ReadSharedReq_avg_miss_latency::total 91590.108553                       # average ReadSharedReq miss latency
system.l2.demand_avg_miss_latency::cpu.inst 77823.703704                       # average overall miss latency
system.l2.demand_avg_miss_latency::cpu.data 91203.984846                       # average overall miss latency
system.l2.demand_avg_miss_latency::total 91202.692797                       # average overall miss latency
system.l2.overall_avg_miss_latency::cpu.inst 77823.703704                       # average overall miss latency
system.l2.overall_avg_miss_latency::cpu.data 91203.984846                       # average overall miss latency
system.l2.overall_avg_miss_latency::total 91202.692797                       # average overall miss latency
system.l2.blocked_cycles::no_mshrs                  0                       # number of cycles access was blocked
system.l2.blocked_cycles::no_targets                0                       # number of cycles access was blocked
system.l2.blocked::no_mshrs                         0                       # number of cycles access was blocked
system.l2.blocked::no_targets                       0                       # number of cycles access was blocked
system.l2.avg_blocked_cycles::no_mshrs            nan                       # average number of cycles each access was blocked
system.l2.avg_blocked_cycles::no_targets          nan                       # average number of cycles each access was blocked
system.l2.fast_writes                               0                       # number of fast writes performed
system.l2.cache_copies                              0                       # number of cache copies performed
system.l2.writebacks::writebacks              1191378                       # number of writebacks
system.l2.writebacks::total                   1191378                       # number of writebacks
system.l2.CleanEvict_mshr_misses::writebacks          407                       # number of CleanEvict MSHR misses
system.l2.CleanEvict_mshr_misses::total           407                       # number of CleanEvict MSHR misses
system.l2.ReadExReq_mshr_misses::cpu.data       222713                       # number of ReadExReq MSHR misses
system.l2.ReadExReq_mshr_misses::total         222713                       # number of ReadExReq MSHR misses
system.l2.ReadCleanReq_mshr_misses::cpu.inst          675                       # number of ReadCleanReq MSHR misses
system.l2.ReadCleanReq_mshr_misses::total          675                       # number of ReadCleanReq MSHR misses
system.l2.ReadSharedReq_mshr_misses::cpu.data      6766816                       # number of ReadSharedReq MSHR misses
system.l2.ReadSharedReq_mshr_misses::total      6766816                       # number of ReadSharedReq MSHR misses
system.l2.demand_mshr_misses::cpu.inst            675                       # number of demand (read+write) MSHR misses
system.l2.demand_mshr_misses::cpu.data        6989529                       # number of demand (read+write) MSHR misses
system.l2.demand_mshr_misses::total           6990204                       # number of demand (read+write) MSHR misses
system.l2.overall_mshr_misses::cpu.inst           675                       # number of overall MSHR misses
system.l2.overall_mshr_misses::cpu.data       6989529                       # number of overall MSHR misses
system.l2.overall_mshr_misses::total          6990204                       # number of overall MSHR misses
system.l2.ReadExReq_mshr_miss_latency::cpu.data  15472355000                       # number of ReadExReq MSHR miss cycles
system.l2.ReadExReq_mshr_miss_latency::total  15472355000                       # number of ReadExReq MSHR miss cycles
system.l2.ReadCleanReq_mshr_miss_latency::cpu.inst     45781000                       # number of ReadCleanReq MSHR miss cycles
system.l2.ReadCleanReq_mshr_miss_latency::total     45781000                       # number of ReadCleanReq MSHR miss cycles
system.l2.ReadSharedReq_mshr_miss_latency::cpu.data 552105252000                       # number of ReadSharedReq MSHR miss cycles
system.l2.ReadSharedReq_mshr_miss_latency::total 552105252000                       # number of ReadSharedReq MSHR miss cycles
system.l2.demand_mshr_miss_latency::cpu.inst     45781000                       # number of demand (read+write) MSHR miss cycles
system.l2.demand_mshr_miss_latency::cpu.data 567577607000                       # number of demand (read+write) MSHR miss cycles
system.l2.demand_mshr_miss_latency::total 567623388000                       # number of demand (read+write) MSHR miss cycles
system.l2.overall_mshr_miss_latency::cpu.inst     45781000                       # number of overall MSHR miss cycles
system.l2.overall_mshr_miss_latency::cpu.data 567577607000                       # number of overall MSHR miss cycles
system.l2.overall_mshr_miss_latency::total 567623388000                       # number of overall MSHR miss cycles
system.l2.CleanEvict_mshr_miss_rate::writebacks          inf                       # mshr miss rate for CleanEvict accesses
system.l2.CleanEvict_mshr_miss_rate::total          inf                       # mshr miss rate for CleanEvict accesses
system.l2.ReadExReq_mshr_miss_rate::cpu.data     0.534815                       # mshr miss rate for ReadExReq accesses
system.l2.ReadExReq_mshr_miss_rate::total     0.534815                       # mshr miss rate for ReadExReq accesses
system.l2.ReadCleanReq_mshr_miss_rate::cpu.inst     0.998521                       # mshr miss rate for ReadCleanReq accesses
system.l2.ReadCleanReq_mshr_miss_rate::total     0.998521                       # mshr miss rate for ReadCleanReq accesses
system.l2.ReadSharedReq_mshr_miss_rate::cpu.data     0.559963                       # mshr miss rate for ReadSharedReq accesses
system.l2.ReadSharedReq_mshr_miss_rate::total     0.559963                       # mshr miss rate for ReadSharedReq accesses
system.l2.demand_mshr_miss_rate::cpu.inst     0.998521                       # mshr miss rate for demand accesses
system.l2.demand_mshr_miss_rate::cpu.data     0.559126                       # mshr miss rate for demand accesses
system.l2.demand_mshr_miss_rate::total       0.559149                       # mshr miss rate for demand accesses
system.l2.overall_mshr_miss_rate::cpu.inst     0.998521                       # mshr miss rate for overall accesses
system.l2.overall_mshr_miss_rate::cpu.data     0.559126                       # mshr miss rate for overall accesses
system.l2.overall_mshr_miss_rate::total      0.559149                       # mshr miss rate for overall accesses
system.l2.ReadExReq_avg_mshr_miss_latency::cpu.data 69472.168216                       # average ReadExReq mshr miss latency
system.l2.ReadExReq_avg_mshr_miss_latency::total 69472.168216                       # average ReadExReq mshr miss latency
system.l2.ReadCleanReq_avg_mshr_miss_latency::cpu.inst 67823.703704                       # average ReadCleanReq mshr miss latency
system.l2.ReadCleanReq_avg_mshr_miss_latency::total 67823.703704                       # average ReadCleanReq mshr miss latency
system.l2.ReadSharedReq_avg_mshr_miss_latency::cpu.data 81590.108553                       # average ReadSharedReq mshr miss latency
system.l2.ReadSharedReq_avg_mshr_miss_latency::total 81590.108553                       # average ReadSharedReq mshr miss latency
system.l2.demand_avg_mshr_miss_latency::cpu.inst 67823.703704                       # average overall mshr miss latency
system.l2.demand_avg_mshr_miss_latency::cpu.data 81203.984846                       # average overall mshr miss latency
system.l2.demand_avg_mshr_miss_latency::total 81202.692797                       # average overall mshr miss latency
system.l2.overall_avg_mshr_miss_latency::cpu.inst 67823.703704                       # average overall mshr miss latency
system.l2.overall_avg_mshr_miss_latency::cpu.data 81203.984846                       # average overall mshr miss latency
system.l2.overall_avg_mshr_miss_latency::total 81202.692797                       # average overall mshr miss latency
system.l2.no_allocate_misses                        0                       # Number of misses that were no-allocate
system.membus.trans_dist::ReadResp            6767491                       # Transaction distribution
system.membus.trans_dist::WritebackDirty      1191378                       # Transaction distribution
system.membus.trans_dist::CleanEvict          5789909                       # Transaction distribution
system.membus.trans_dist::ReadExReq            222713                       # Transaction distribution
system.membus.trans_dist::ReadExResp           222713                       # Transaction distribution
system.membus.trans_dist::ReadSharedReq       6767491                       # Transaction distribution
system.membus.pkt_count_system.l2.mem_side::system.mem_ctrls.port     20961695                       # Packet count per connected master and slave (bytes)
system.membus.pkt_count_system.l2.mem_side::total     20961695                       # Packet count per connected master and slave (bytes)
system.membus.pkt_count::total               20961695                       # Packet count per connected master and slave (bytes)
system.membus.pkt_size_system.l2.mem_side::system.mem_ctrls.port    523621248                       # Cumulative packet size per connected master and slave (bytes)
system.membus.pkt_size_system.l2.mem_side::total    523621248                       # Cumulative packet size per connected master and slave (bytes)
system.membus.pkt_size::total               523621248                       # Cumulative packet size per connected master and slave (bytes)
system.membus.snoops                                0                       # Total snoops (count)
system.membus.snoop_fanout::samples          13971491                       # Request fanout histogram
system.membus.snoop_fanout::mean                    0                       # Request fanout histogram
system.membus.snoop_fanout::stdev                   0                       # Request fanout histogram
system.membus.snoop_fanout::underflows              0      0.00%      0.00% # Request fanout histogram
system.membus.snoop_fanout::0                13971491    100.00%    100.00% # Request fanout histogram
system.membus.snoop_fanout::1                       0      0.00%    100.00% # Request fanout histogram
system.membus.snoop_fanout::overflows               0      0.00%    100.00% # Request fanout histogram
system.membus.snoop_fanout::min_value               0                       # Request fanout histogram
system.membus.snoop_fanout::max_value               0                       # Request fanout histogram
system.membus.snoop_fanout::total            13971491                       # Request fanout histogram
system.membus.reqLayer2.occupancy         18744068000                       # Layer occupancy (ticks)
system.membus.reqLayer2.utilization               1.1                       # Layer utilization (%)
system.membus.respLayer1.occupancy        38960165500                       # Layer occupancy (ticks)
system.membus.respLayer1.utilization              2.3                       # Layer utilization (%)
system.tol2bus.snoop_filter.tot_requests     25001296                       # Total number of requests made to the snoop filter.
system.tol2bus.snoop_filter.hit_single_requests     12499802                       # Number of requests hitting in the snoop filter with a single holder of the requested data.
system.tol2bus.snoop_filter.hit_multi_requests            1                       # Number of requests hitting in the snoop filter with multiple (>1) holders of the requested data.
system.tol2bus.snoop_filter.tot_snoops           5201                       # Total number of snoops made to the snoop filter.
system.tol2bus.snoop_filter.hit_single_snoops         5201                       # Number of snoops hitting in the snoop filter with a single holder of the requested data.
system.tol2bus.snoop_filter.hit_multi_snoops            0                       # Number of snoops hitting in the snoop filter with multiple (>1) holders of the requested data.
system.tol2bus.trans_dist::ReadResp          12085064                       # Transaction distribution
system.tol2bus.trans_dist::WritebackDirty      3636951                       # Transaction distribution
system.tol2bus.trans_dist::WritebackClean            8                       # Transaction distribution
system.tol2bus.trans_dist::CleanEvict        15848923                       # Transaction distribution
system.tol2bus.trans_dist::ReadExReq           416430                       # Transaction distribution
system.tol2bus.trans_dist::ReadExResp          416430                       # Transaction distribution
system.tol2bus.trans_dist::ReadCleanReq           676                       # Transaction distribution
system.tol2bus.trans_dist::ReadSharedReq     12084388                       # Transaction distribution
system.tol2bus.pkt_count_system.cpu.icache.mem_side::system.l2.cpu_side         1360                       # Packet count per connected master and slave (bytes)
system.tol2bus.pkt_count_system.cpu.dcache.mem_side::system.l2.cpu_side     37501429                       # Packet count per connected master and slave (bytes)
system.tol2bus.pkt_count::total              37502789                       # Packet count per connected master and slave (bytes)
system.tol2bus.pkt_size_system.cpu.icache.mem_side::system.l2.cpu_side        43776                       # Cumulative packet size per connected master and slave (bytes)
system.tol2bus.pkt_size_system.cpu.dcache.mem_side::system.l2.cpu_side    956569024                       # Cumulative packet size per connected master and slave (bytes)
system.tol2bus.pkt_size::total              956612800                       # Cumulative packet size per connected master and slave (bytes)
system.tol2bus.snoops                         6986081                       # Total snoops (count)
system.tol2bus.snoop_fanout::samples         19487575                       # Request fanout histogram
system.tol2bus.snoop_fanout::mean            0.000267                       # Request fanout histogram
system.tol2bus.snoop_fanout::stdev           0.016336                       # Request fanout histogram
system.tol2bus.snoop_fanout::underflows             0      0.00%      0.00% # Request fanout histogram
system.tol2bus.snoop_fanout::0               19482373     99.97%     99.97% # Request fanout histogram
system.tol2bus.snoop_fanout::1                   5202      0.03%    100.00% # Request fanout histogram
system.tol2bus.snoop_fanout::2                      0      0.00%    100.00% # Request fanout histogram
system.tol2bus.snoop_fanout::3                      0      0.00%    100.00% # Request fanout histogram
system.tol2bus.snoop_fanout::4                      0      0.00%    100.00% # Request fanout histogram
system.tol2bus.snoop_fanout::overflows              0      0.00%    100.00% # Request fanout histogram
system.tol2bus.snoop_fanout::min_value              0                       # Request fanout histogram
system.tol2bus.snoop_fanout::max_value              1                       # Request fanout histogram
system.tol2bus.snoop_fanout::total           19487575                       # Request fanout histogram
system.tol2bus.reqLayer0.occupancy        14946229000                       # Layer occupancy (ticks)
system.tol2bus.reqLayer0.utilization              0.9                       # Layer utilization (%)
system.tol2bus.respLayer0.occupancy           1014000                       # Layer occupancy (ticks)
system.tol2bus.respLayer0.utilization             0.0                       # Layer utilization (%)
system.tol2bus.respLayer1.occupancy       18751227000                       # Layer occupancy (ticks)
system.tol2bus.respLayer1.utilization             1.1                       # Layer utilization (%)

---------- End Simulation Statistics   ----------
