
---------- Begin Simulation Statistics ----------
sim_seconds                                  1.052301                       # Number of seconds simulated
sim_ticks                                1052300556500                       # Number of ticks simulated
final_tick                               1052300556500                       # Number of ticks from beginning of simulation (restored from checkpoints and never reset)
sim_freq                                 1000000000000                       # Frequency of simulated ticks
host_inst_rate                                  35622                       # Simulator instruction rate (inst/s)
host_op_rate                                    52040                       # Simulator op (including micro ops) rate (op/s)
host_tick_rate                               74970451                       # Simulator tick rate (ticks/s)
host_mem_usage                                 828420                       # Number of bytes of host memory used
host_seconds                                 14036.20                       # Real time elapsed on the host
sim_insts                                   500000000                       # Number of instructions simulated
sim_ops                                     730450481                       # Number of ops (including micro ops) simulated
system.voltage_domain.voltage                       1                       # Voltage in Volts
system.clk_domain.clock                          1000                       # Clock period in ticks
system.mem_ctrls.bytes_read::cpu.inst           64000                       # Number of bytes read from this memory
system.mem_ctrls.bytes_read::cpu.data        39860160                       # Number of bytes read from this memory
system.mem_ctrls.bytes_read::total           39924160                       # Number of bytes read from this memory
system.mem_ctrls.bytes_inst_read::cpu.inst        64000                       # Number of instructions bytes read from this memory
system.mem_ctrls.bytes_inst_read::total         64000                       # Number of instructions bytes read from this memory
system.mem_ctrls.bytes_written::writebacks     23984320                       # Number of bytes written to this memory
system.mem_ctrls.bytes_written::total        23984320                       # Number of bytes written to this memory
system.mem_ctrls.num_reads::cpu.inst             1000                       # Number of read requests responded to by this memory
system.mem_ctrls.num_reads::cpu.data           622815                       # Number of read requests responded to by this memory
system.mem_ctrls.num_reads::total              623815                       # Number of read requests responded to by this memory
system.mem_ctrls.num_writes::writebacks        374755                       # Number of write requests responded to by this memory
system.mem_ctrls.num_writes::total             374755                       # Number of write requests responded to by this memory
system.mem_ctrls.bw_read::cpu.inst              60819                       # Total read bandwidth from this memory (bytes/s)
system.mem_ctrls.bw_read::cpu.data           37879064                       # Total read bandwidth from this memory (bytes/s)
system.mem_ctrls.bw_read::total              37939883                       # Total read bandwidth from this memory (bytes/s)
system.mem_ctrls.bw_inst_read::cpu.inst         60819                       # Instruction read bandwidth from this memory (bytes/s)
system.mem_ctrls.bw_inst_read::total            60819                       # Instruction read bandwidth from this memory (bytes/s)
system.mem_ctrls.bw_write::writebacks        22792272                       # Write bandwidth from this memory (bytes/s)
system.mem_ctrls.bw_write::total             22792272                       # Write bandwidth from this memory (bytes/s)
system.mem_ctrls.bw_total::writebacks        22792272                       # Total bandwidth to/from this memory (bytes/s)
system.mem_ctrls.bw_total::cpu.inst             60819                       # Total bandwidth to/from this memory (bytes/s)
system.mem_ctrls.bw_total::cpu.data          37879064                       # Total bandwidth to/from this memory (bytes/s)
system.mem_ctrls.bw_total::total             60732155                       # Total bandwidth to/from this memory (bytes/s)
system.mem_ctrls.readReqs                      623815                       # Number of read requests accepted
system.mem_ctrls.writeReqs                     374755                       # Number of write requests accepted
system.mem_ctrls.readBursts                    623815                       # Number of DRAM read bursts, including those serviced by the write queue
system.mem_ctrls.writeBursts                   374755                       # Number of DRAM write bursts, including those merged in the write queue
system.mem_ctrls.bytesReadDRAM               39851264                       # Total number of bytes read from DRAM
system.mem_ctrls.bytesReadWrQ                   72896                       # Total number of bytes read from write queue
system.mem_ctrls.bytesWritten                23982592                       # Total number of bytes written to DRAM
system.mem_ctrls.bytesReadSys                39924160                       # Total read bytes from the system interface side
system.mem_ctrls.bytesWrittenSys             23984320                       # Total written bytes from the system interface side
system.mem_ctrls.servicedByWrQ                   1139                       # Number of DRAM read bursts serviced by the write queue
system.mem_ctrls.mergedWrBursts                     0                       # Number of DRAM write bursts merged with an existing one
system.mem_ctrls.neitherReadNorWriteReqs       231749                       # Number of requests that are neither read nor write
system.mem_ctrls.perBankRdBursts::0             39726                       # Per bank write bursts
system.mem_ctrls.perBankRdBursts::1             38228                       # Per bank write bursts
system.mem_ctrls.perBankRdBursts::2             38029                       # Per bank write bursts
system.mem_ctrls.perBankRdBursts::3             38045                       # Per bank write bursts
system.mem_ctrls.perBankRdBursts::4             38122                       # Per bank write bursts
system.mem_ctrls.perBankRdBursts::5             38332                       # Per bank write bursts
system.mem_ctrls.perBankRdBursts::6             39552                       # Per bank write bursts
system.mem_ctrls.perBankRdBursts::7             39299                       # Per bank write bursts
system.mem_ctrls.perBankRdBursts::8             37867                       # Per bank write bursts
system.mem_ctrls.perBankRdBursts::9             36942                       # Per bank write bursts
system.mem_ctrls.perBankRdBursts::10            38680                       # Per bank write bursts
system.mem_ctrls.perBankRdBursts::11            39305                       # Per bank write bursts
system.mem_ctrls.perBankRdBursts::12            39768                       # Per bank write bursts
system.mem_ctrls.perBankRdBursts::13            39596                       # Per bank write bursts
system.mem_ctrls.perBankRdBursts::14            40756                       # Per bank write bursts
system.mem_ctrls.perBankRdBursts::15            40429                       # Per bank write bursts
system.mem_ctrls.perBankWrBursts::0             23970                       # Per bank write bursts
system.mem_ctrls.perBankWrBursts::1             22895                       # Per bank write bursts
system.mem_ctrls.perBankWrBursts::2             22728                       # Per bank write bursts
system.mem_ctrls.perBankWrBursts::3             22686                       # Per bank write bursts
system.mem_ctrls.perBankWrBursts::4             22553                       # Per bank write bursts
system.mem_ctrls.perBankWrBursts::5             22355                       # Per bank write bursts
system.mem_ctrls.perBankWrBursts::6             22882                       # Per bank write bursts
system.mem_ctrls.perBankWrBursts::7             23468                       # Per bank write bursts
system.mem_ctrls.perBankWrBursts::8             23649                       # Per bank write bursts
system.mem_ctrls.perBankWrBursts::9             23310                       # Per bank write bursts
system.mem_ctrls.perBankWrBursts::10            23705                       # Per bank write bursts
system.mem_ctrls.perBankWrBursts::11            23614                       # Per bank write bursts
system.mem_ctrls.perBankWrBursts::12            23676                       # Per bank write bursts
system.mem_ctrls.perBankWrBursts::13            24077                       # Per bank write bursts
system.mem_ctrls.perBankWrBursts::14            24778                       # Per bank write bursts
system.mem_ctrls.perBankWrBursts::15            24382                       # Per bank write bursts
system.mem_ctrls.numRdRetry                         0                       # Number of times read queue was full causing retry
system.mem_ctrls.numWrRetry                         0                       # Number of times write queue was full causing retry
system.mem_ctrls.totGap                  1052267890500                       # Total gap between requests
system.mem_ctrls.readPktSize::0                     0                       # Read request sizes (log2)
system.mem_ctrls.readPktSize::1                     0                       # Read request sizes (log2)
system.mem_ctrls.readPktSize::2                     0                       # Read request sizes (log2)
system.mem_ctrls.readPktSize::3                     0                       # Read request sizes (log2)
system.mem_ctrls.readPktSize::4                     0                       # Read request sizes (log2)
system.mem_ctrls.readPktSize::5                     0                       # Read request sizes (log2)
system.mem_ctrls.readPktSize::6                623815                       # Read request sizes (log2)
system.mem_ctrls.writePktSize::0                    0                       # Write request sizes (log2)
system.mem_ctrls.writePktSize::1                    0                       # Write request sizes (log2)
system.mem_ctrls.writePktSize::2                    0                       # Write request sizes (log2)
system.mem_ctrls.writePktSize::3                    0                       # Write request sizes (log2)
system.mem_ctrls.writePktSize::4                    0                       # Write request sizes (log2)
system.mem_ctrls.writePktSize::5                    0                       # Write request sizes (log2)
system.mem_ctrls.writePktSize::6               374755                       # Write request sizes (log2)
system.mem_ctrls.rdQLenPdf::0                  614008                       # What read queue length does an incoming req see
system.mem_ctrls.rdQLenPdf::1                    8047                       # What read queue length does an incoming req see
system.mem_ctrls.rdQLenPdf::2                     466                       # What read queue length does an incoming req see
system.mem_ctrls.rdQLenPdf::3                     155                       # What read queue length does an incoming req see
system.mem_ctrls.rdQLenPdf::4                       0                       # What read queue length does an incoming req see
system.mem_ctrls.rdQLenPdf::5                       0                       # What read queue length does an incoming req see
system.mem_ctrls.rdQLenPdf::6                       0                       # What read queue length does an incoming req see
system.mem_ctrls.rdQLenPdf::7                       0                       # What read queue length does an incoming req see
system.mem_ctrls.rdQLenPdf::8                       0                       # What read queue length does an incoming req see
system.mem_ctrls.rdQLenPdf::9                       0                       # What read queue length does an incoming req see
system.mem_ctrls.rdQLenPdf::10                      0                       # What read queue length does an incoming req see
system.mem_ctrls.rdQLenPdf::11                      0                       # What read queue length does an incoming req see
system.mem_ctrls.rdQLenPdf::12                      0                       # What read queue length does an incoming req see
system.mem_ctrls.rdQLenPdf::13                      0                       # What read queue length does an incoming req see
system.mem_ctrls.rdQLenPdf::14                      0                       # What read queue length does an incoming req see
system.mem_ctrls.rdQLenPdf::15                      0                       # What read queue length does an incoming req see
system.mem_ctrls.rdQLenPdf::16                      0                       # What read queue length does an incoming req see
system.mem_ctrls.rdQLenPdf::17                      0                       # What read queue length does an incoming req see
system.mem_ctrls.rdQLenPdf::18                      0                       # What read queue length does an incoming req see
system.mem_ctrls.rdQLenPdf::19                      0                       # What read queue length does an incoming req see
system.mem_ctrls.rdQLenPdf::20                      0                       # What read queue length does an incoming req see
system.mem_ctrls.rdQLenPdf::21                      0                       # What read queue length does an incoming req see
system.mem_ctrls.rdQLenPdf::22                      0                       # What read queue length does an incoming req see
system.mem_ctrls.rdQLenPdf::23                      0                       # What read queue length does an incoming req see
system.mem_ctrls.rdQLenPdf::24                      0                       # What read queue length does an incoming req see
system.mem_ctrls.rdQLenPdf::25                      0                       # What read queue length does an incoming req see
system.mem_ctrls.rdQLenPdf::26                      0                       # What read queue length does an incoming req see
system.mem_ctrls.rdQLenPdf::27                      0                       # What read queue length does an incoming req see
system.mem_ctrls.rdQLenPdf::28                      0                       # What read queue length does an incoming req see
system.mem_ctrls.rdQLenPdf::29                      0                       # What read queue length does an incoming req see
system.mem_ctrls.rdQLenPdf::30                      0                       # What read queue length does an incoming req see
system.mem_ctrls.rdQLenPdf::31                      0                       # What read queue length does an incoming req see
system.mem_ctrls.wrQLenPdf::0                       1                       # What write queue length does an incoming req see
system.mem_ctrls.wrQLenPdf::1                       1                       # What write queue length does an incoming req see
system.mem_ctrls.wrQLenPdf::2                       1                       # What write queue length does an incoming req see
system.mem_ctrls.wrQLenPdf::3                       1                       # What write queue length does an incoming req see
system.mem_ctrls.wrQLenPdf::4                       1                       # What write queue length does an incoming req see
system.mem_ctrls.wrQLenPdf::5                       1                       # What write queue length does an incoming req see
system.mem_ctrls.wrQLenPdf::6                       1                       # What write queue length does an incoming req see
system.mem_ctrls.wrQLenPdf::7                       1                       # What write queue length does an incoming req see
system.mem_ctrls.wrQLenPdf::8                       1                       # What write queue length does an incoming req see
system.mem_ctrls.wrQLenPdf::9                       1                       # What write queue length does an incoming req see
system.mem_ctrls.wrQLenPdf::10                      1                       # What write queue length does an incoming req see
system.mem_ctrls.wrQLenPdf::11                      1                       # What write queue length does an incoming req see
system.mem_ctrls.wrQLenPdf::12                      1                       # What write queue length does an incoming req see
system.mem_ctrls.wrQLenPdf::13                      1                       # What write queue length does an incoming req see
system.mem_ctrls.wrQLenPdf::14                      1                       # What write queue length does an incoming req see
system.mem_ctrls.wrQLenPdf::15                  13695                       # What write queue length does an incoming req see
system.mem_ctrls.wrQLenPdf::16                  14669                       # What write queue length does an incoming req see
system.mem_ctrls.wrQLenPdf::17                  21386                       # What write queue length does an incoming req see
system.mem_ctrls.wrQLenPdf::18                  21646                       # What write queue length does an incoming req see
system.mem_ctrls.wrQLenPdf::19                  21648                       # What write queue length does an incoming req see
system.mem_ctrls.wrQLenPdf::20                  21625                       # What write queue length does an incoming req see
system.mem_ctrls.wrQLenPdf::21                  21598                       # What write queue length does an incoming req see
system.mem_ctrls.wrQLenPdf::22                  21587                       # What write queue length does an incoming req see
system.mem_ctrls.wrQLenPdf::23                  21590                       # What write queue length does an incoming req see
system.mem_ctrls.wrQLenPdf::24                  21611                       # What write queue length does an incoming req see
system.mem_ctrls.wrQLenPdf::25                  21601                       # What write queue length does an incoming req see
system.mem_ctrls.wrQLenPdf::26                  21632                       # What write queue length does an incoming req see
system.mem_ctrls.wrQLenPdf::27                  21868                       # What write queue length does an incoming req see
system.mem_ctrls.wrQLenPdf::28                  22294                       # What write queue length does an incoming req see
system.mem_ctrls.wrQLenPdf::29                  21577                       # What write queue length does an incoming req see
system.mem_ctrls.wrQLenPdf::30                  21565                       # What write queue length does an incoming req see
system.mem_ctrls.wrQLenPdf::31                  21564                       # What write queue length does an incoming req see
system.mem_ctrls.wrQLenPdf::32                  21560                       # What write queue length does an incoming req see
system.mem_ctrls.wrQLenPdf::33                     23                       # What write queue length does an incoming req see
system.mem_ctrls.wrQLenPdf::34                      1                       # What write queue length does an incoming req see
system.mem_ctrls.wrQLenPdf::35                      0                       # What write queue length does an incoming req see
system.mem_ctrls.wrQLenPdf::36                      0                       # What write queue length does an incoming req see
system.mem_ctrls.wrQLenPdf::37                      0                       # What write queue length does an incoming req see
system.mem_ctrls.wrQLenPdf::38                      0                       # What write queue length does an incoming req see
system.mem_ctrls.wrQLenPdf::39                      0                       # What write queue length does an incoming req see
system.mem_ctrls.wrQLenPdf::40                      0                       # What write queue length does an incoming req see
system.mem_ctrls.wrQLenPdf::41                      0                       # What write queue length does an incoming req see
system.mem_ctrls.wrQLenPdf::42                      0                       # What write queue length does an incoming req see
system.mem_ctrls.wrQLenPdf::43                      0                       # What write queue length does an incoming req see
system.mem_ctrls.wrQLenPdf::44                      0                       # What write queue length does an incoming req see
system.mem_ctrls.wrQLenPdf::45                      0                       # What write queue length does an incoming req see
system.mem_ctrls.wrQLenPdf::46                      0                       # What write queue length does an incoming req see
system.mem_ctrls.wrQLenPdf::47                      0                       # What write queue length does an incoming req see
system.mem_ctrls.wrQLenPdf::48                      0                       # What write queue length does an incoming req see
system.mem_ctrls.wrQLenPdf::49                      0                       # What write queue length does an incoming req see
system.mem_ctrls.wrQLenPdf::50                      0                       # What write queue length does an incoming req see
system.mem_ctrls.wrQLenPdf::51                      0                       # What write queue length does an incoming req see
system.mem_ctrls.wrQLenPdf::52                      0                       # What write queue length does an incoming req see
system.mem_ctrls.wrQLenPdf::53                      0                       # What write queue length does an incoming req see
system.mem_ctrls.wrQLenPdf::54                      0                       # What write queue length does an incoming req see
system.mem_ctrls.wrQLenPdf::55                      0                       # What write queue length does an incoming req see
system.mem_ctrls.wrQLenPdf::56                      0                       # What write queue length does an incoming req see
system.mem_ctrls.wrQLenPdf::57                      0                       # What write queue length does an incoming req see
system.mem_ctrls.wrQLenPdf::58                      0                       # What write queue length does an incoming req see
system.mem_ctrls.wrQLenPdf::59                      0                       # What write queue length does an incoming req see
system.mem_ctrls.wrQLenPdf::60                      0                       # What write queue length does an incoming req see
system.mem_ctrls.wrQLenPdf::61                      0                       # What write queue length does an incoming req see
system.mem_ctrls.wrQLenPdf::62                      0                       # What write queue length does an incoming req see
system.mem_ctrls.wrQLenPdf::63                      0                       # What write queue length does an incoming req see
system.mem_ctrls.bytesPerActivate::samples       560020                       # Bytes accessed per row activation
system.mem_ctrls.bytesPerActivate::mean    113.984958                       # Bytes accessed per row activation
system.mem_ctrls.bytesPerActivate::gmean    86.361753                       # Bytes accessed per row activation
system.mem_ctrls.bytesPerActivate::stdev   143.119531                       # Bytes accessed per row activation
system.mem_ctrls.bytesPerActivate::0-127       412576     73.67%     73.67% # Bytes accessed per row activation
system.mem_ctrls.bytesPerActivate::128-255       102583     18.32%     91.99% # Bytes accessed per row activation
system.mem_ctrls.bytesPerActivate::256-383        17793      3.18%     95.17% # Bytes accessed per row activation
system.mem_ctrls.bytesPerActivate::384-511         6199      1.11%     96.27% # Bytes accessed per row activation
system.mem_ctrls.bytesPerActivate::512-639        10890      1.94%     98.22% # Bytes accessed per row activation
system.mem_ctrls.bytesPerActivate::640-767          872      0.16%     98.37% # Bytes accessed per row activation
system.mem_ctrls.bytesPerActivate::768-895          679      0.12%     98.50% # Bytes accessed per row activation
system.mem_ctrls.bytesPerActivate::896-1023          704      0.13%     98.62% # Bytes accessed per row activation
system.mem_ctrls.bytesPerActivate::1024-1151         7724      1.38%    100.00% # Bytes accessed per row activation
system.mem_ctrls.bytesPerActivate::total       560020                       # Bytes accessed per row activation
system.mem_ctrls.rdPerTurnAround::samples        21560                       # Reads before turning the bus around for writes
system.mem_ctrls.rdPerTurnAround::mean      28.822217                       # Reads before turning the bus around for writes
system.mem_ctrls.rdPerTurnAround::stdev    196.387436                       # Reads before turning the bus around for writes
system.mem_ctrls.rdPerTurnAround::0-1023        21549     99.95%     99.95% # Reads before turning the bus around for writes
system.mem_ctrls.rdPerTurnAround::1024-2047            9      0.04%     99.99% # Reads before turning the bus around for writes
system.mem_ctrls.rdPerTurnAround::3072-4095            1      0.00%    100.00% # Reads before turning the bus around for writes
system.mem_ctrls.rdPerTurnAround::27648-28671            1      0.00%    100.00% # Reads before turning the bus around for writes
system.mem_ctrls.rdPerTurnAround::total         21560                       # Reads before turning the bus around for writes
system.mem_ctrls.wrPerTurnAround::samples        21560                       # Writes before turning the bus around for reads
system.mem_ctrls.wrPerTurnAround::mean      17.380705                       # Writes before turning the bus around for reads
system.mem_ctrls.wrPerTurnAround::gmean     17.351073                       # Writes before turning the bus around for reads
system.mem_ctrls.wrPerTurnAround::stdev      1.006292                       # Writes before turning the bus around for reads
system.mem_ctrls.wrPerTurnAround::16             6912     32.06%     32.06% # Writes before turning the bus around for reads
system.mem_ctrls.wrPerTurnAround::17              905      4.20%     36.26% # Writes before turning the bus around for reads
system.mem_ctrls.wrPerTurnAround::18            12444     57.72%     93.97% # Writes before turning the bus around for reads
system.mem_ctrls.wrPerTurnAround::19             1227      5.69%     99.67% # Writes before turning the bus around for reads
system.mem_ctrls.wrPerTurnAround::20               67      0.31%     99.98% # Writes before turning the bus around for reads
system.mem_ctrls.wrPerTurnAround::21                4      0.02%    100.00% # Writes before turning the bus around for reads
system.mem_ctrls.wrPerTurnAround::22                1      0.00%    100.00% # Writes before turning the bus around for reads
system.mem_ctrls.wrPerTurnAround::total         21560                       # Writes before turning the bus around for reads
system.mem_ctrls.totQLat                   9287604500                       # Total ticks spent queuing
system.mem_ctrls.totMemAccLat             20962779500                       # Total ticks spent from burst creation until serviced by the DRAM
system.mem_ctrls.totBusLat                 3113380000                       # Total ticks spent in databus transfers
system.mem_ctrls.avgQLat                     14915.63                       # Average queueing delay per DRAM burst
system.mem_ctrls.avgBusLat                    5000.00                       # Average bus latency per DRAM burst
system.mem_ctrls.avgMemAccLat                33665.63                       # Average memory access latency per DRAM burst
system.mem_ctrls.avgRdBW                        37.87                       # Average DRAM read bandwidth in MiByte/s
system.mem_ctrls.avgWrBW                        22.79                       # Average achieved write bandwidth in MiByte/s
system.mem_ctrls.avgRdBWSys                     37.94                       # Average system read bandwidth in MiByte/s
system.mem_ctrls.avgWrBWSys                     22.79                       # Average system write bandwidth in MiByte/s
system.mem_ctrls.peakBW                      12800.00                       # Theoretical peak bandwidth in MiByte/s
system.mem_ctrls.busUtil                         0.47                       # Data bus utilization in percentage
system.mem_ctrls.busUtilRead                     0.30                       # Data bus utilization in percentage for reads
system.mem_ctrls.busUtilWrite                    0.18                       # Data bus utilization in percentage for writes
system.mem_ctrls.avgRdQLen                       1.00                       # Average read queue length when enqueuing
system.mem_ctrls.avgWrQLen                      24.95                       # Average write queue length when enqueuing
system.mem_ctrls.readRowHits                   296451                       # Number of row buffer hits during reads
system.mem_ctrls.writeRowHits                  140933                       # Number of row buffer hits during writes
system.mem_ctrls.readRowHitRate                 47.61                       # Row buffer hit rate for reads
system.mem_ctrls.writeRowHitRate                37.61                       # Row buffer hit rate for writes
system.mem_ctrls.avgGap                    1053774.79                       # Average gap between requests
system.mem_ctrls.pageHitRate                    43.85                       # Row buffer hit rate, read and write combined
system.mem_ctrls_0.actEnergy               2090196360                       # Energy for activate commands per rank (pJ)
system.mem_ctrls_0.preEnergy               1140484125                       # Energy for precharge commands per rank (pJ)
system.mem_ctrls_0.readEnergy              2412797400                       # Energy for read commands per rank (pJ)
system.mem_ctrls_0.writeEnergy             1189319760                       # Energy for write commands per rank (pJ)
system.mem_ctrls_0.refreshEnergy          68730866880                       # Energy for refresh commands per rank (pJ)
system.mem_ctrls_0.actBackEnergy         205514784495                       # Energy for active background per rank (pJ)
system.mem_ctrls_0.preBackEnergy         451101690000                       # Energy for precharge background per rank (pJ)
system.mem_ctrls_0.totalEnergy           732180139020                       # Total energy per rank (pJ)
system.mem_ctrls_0.averagePower            695.792712                       # Core power per rank (mW)
system.mem_ctrls_0.memoryStateTime::IDLE 749237583750                       # Time in different power states
system.mem_ctrls_0.memoryStateTime::REF   35138480000                       # Time in different power states
system.mem_ctrls_0.memoryStateTime::PRE_PDN            0                       # Time in different power states
system.mem_ctrls_0.memoryStateTime::ACT  267920311250                       # Time in different power states
system.mem_ctrls_0.memoryStateTime::ACT_PDN            0                       # Time in different power states
system.mem_ctrls_1.actEnergy               2143554840                       # Energy for activate commands per rank (pJ)
system.mem_ctrls_1.preEnergy               1169598375                       # Energy for precharge commands per rank (pJ)
system.mem_ctrls_1.readEnergy              2444075400                       # Energy for read commands per rank (pJ)
system.mem_ctrls_1.writeEnergy             1238917680                       # Energy for write commands per rank (pJ)
system.mem_ctrls_1.refreshEnergy          68730866880                       # Energy for refresh commands per rank (pJ)
system.mem_ctrls_1.actBackEnergy         205202114415                       # Energy for active background per rank (pJ)
system.mem_ctrls_1.preBackEnergy         451375962000                       # Energy for precharge background per rank (pJ)
system.mem_ctrls_1.totalEnergy           732305089590                       # Total energy per rank (pJ)
system.mem_ctrls_1.averagePower            695.911453                       # Core power per rank (mW)
system.mem_ctrls_1.memoryStateTime::IDLE 749684594750                       # Time in different power states
system.mem_ctrls_1.memoryStateTime::REF   35138480000                       # Time in different power states
system.mem_ctrls_1.memoryStateTime::PRE_PDN            0                       # Time in different power states
system.mem_ctrls_1.memoryStateTime::ACT  267473300250                       # Time in different power states
system.mem_ctrls_1.memoryStateTime::ACT_PDN            0                       # Time in different power states
system.cpu_voltage_domain.voltage                   1                       # Voltage in Volts
system.cpu_clk_domain.clock                       500                       # Clock period in ticks
system.cpu.apic_clk_domain.clock                 8000                       # Clock period in ticks
system.cpu.workload.num_syscalls                   86                       # Number of system calls
system.cpu.numCycles                       2104601113                       # number of cpu cycles simulated
system.cpu.numWorkItemsStarted                      0                       # number of work items this cpu started
system.cpu.numWorkItemsCompleted                    0                       # number of work items this cpu completed
system.cpu.committedInsts                   500000000                       # Number of instructions committed
system.cpu.committedOps                     730450481                       # Number of ops (including micro ops) committed
system.cpu.num_int_alu_accesses             729688887                       # Number of integer alu accesses
system.cpu.num_fp_alu_accesses                    761                       # Number of float alu accesses
system.cpu.num_func_calls                     1453959                       # number of times a function call or return occured
system.cpu.num_conditional_control_insts     31770494                       # number of instructions that are conditional controls
system.cpu.num_int_insts                    729688887                       # number of integer instructions
system.cpu.num_fp_insts                           761                       # number of float instructions
system.cpu.num_int_register_reads          1698743312                       # number of times the integer registers were read
system.cpu.num_int_register_writes          621892930                       # number of times the integer registers were written
system.cpu.num_fp_register_reads                 1183                       # number of times the floating registers were read
system.cpu.num_fp_register_writes                 497                       # number of times the floating registers were written
system.cpu.num_cc_register_reads            180840590                       # number of times the CC registers were read
system.cpu.num_cc_register_writes           276245123                       # number of times the CC registers were written
system.cpu.num_mem_refs                     295985437                       # number of memory refs
system.cpu.num_load_insts                   225946734                       # Number of load instructions
system.cpu.num_store_insts                   70038703                       # Number of store instructions
system.cpu.num_idle_cycles                          0                       # Number of idle cycles
system.cpu.num_busy_cycles                 2104601113                       # Number of busy cycles
system.cpu.not_idle_fraction                        1                       # Percentage of non-idle cycles
system.cpu.idle_fraction                            0                       # Percentage of idle cycles
system.cpu.Branches                          37843290                       # Number of branches fetched
system.cpu.op_class::No_OpClass                 94739      0.01%      0.01% # Class of executed instruction
system.cpu.op_class::IntAlu                 434349056     59.46%     59.48% # Class of executed instruction
system.cpu.op_class::IntMult                    20662      0.00%     59.48% # Class of executed instruction
system.cpu.op_class::IntDiv                       119      0.00%     59.48% # Class of executed instruction
system.cpu.op_class::FloatAdd                     468      0.00%     59.48% # Class of executed instruction
system.cpu.op_class::FloatCmp                       0      0.00%     59.48% # Class of executed instruction
system.cpu.op_class::FloatCvt                       0      0.00%     59.48% # Class of executed instruction
system.cpu.op_class::FloatMult                      0      0.00%     59.48% # Class of executed instruction
system.cpu.op_class::FloatDiv                       0      0.00%     59.48% # Class of executed instruction
system.cpu.op_class::FloatSqrt                      0      0.00%     59.48% # Class of executed instruction
system.cpu.op_class::SimdAdd                        0      0.00%     59.48% # Class of executed instruction
system.cpu.op_class::SimdAddAcc                     0      0.00%     59.48% # Class of executed instruction
system.cpu.op_class::SimdAlu                        0      0.00%     59.48% # Class of executed instruction
system.cpu.op_class::SimdCmp                        0      0.00%     59.48% # Class of executed instruction
system.cpu.op_class::SimdCvt                        0      0.00%     59.48% # Class of executed instruction
system.cpu.op_class::SimdMisc                       0      0.00%     59.48% # Class of executed instruction
system.cpu.op_class::SimdMult                       0      0.00%     59.48% # Class of executed instruction
system.cpu.op_class::SimdMultAcc                    0      0.00%     59.48% # Class of executed instruction
system.cpu.op_class::SimdShift                      0      0.00%     59.48% # Class of executed instruction
system.cpu.op_class::SimdShiftAcc                   0      0.00%     59.48% # Class of executed instruction
system.cpu.op_class::SimdSqrt                       0      0.00%     59.48% # Class of executed instruction
system.cpu.op_class::SimdFloatAdd                   0      0.00%     59.48% # Class of executed instruction
system.cpu.op_class::SimdFloatAlu                   0      0.00%     59.48% # Class of executed instruction
system.cpu.op_class::SimdFloatCmp                   0      0.00%     59.48% # Class of executed instruction
system.cpu.op_class::SimdFloatCvt                   0      0.00%     59.48% # Class of executed instruction
system.cpu.op_class::SimdFloatDiv                   0      0.00%     59.48% # Class of executed instruction
system.cpu.op_class::SimdFloatMisc                  0      0.00%     59.48% # Class of executed instruction
system.cpu.op_class::SimdFloatMult                  0      0.00%     59.48% # Class of executed instruction
system.cpu.op_class::SimdFloatMultAcc               0      0.00%     59.48% # Class of executed instruction
system.cpu.op_class::SimdFloatSqrt                  0      0.00%     59.48% # Class of executed instruction
system.cpu.op_class::MemRead                225946734     30.93%     90.41% # Class of executed instruction
system.cpu.op_class::MemWrite                70038703      9.59%    100.00% # Class of executed instruction
system.cpu.op_class::IprAccess                      0      0.00%    100.00% # Class of executed instruction
system.cpu.op_class::InstPrefetch                   0      0.00%    100.00% # Class of executed instruction
system.cpu.op_class::total                  730450481                       # Class of executed instruction
system.cpu.dcache.tags.replacements           2042531                       # number of replacements
system.cpu.dcache.tags.tagsinuse          2042.154693                       # Cycle average of tags in use
system.cpu.dcache.tags.total_refs           293940866                       # Total number of references to valid blocks.
system.cpu.dcache.tags.sampled_refs           2044579                       # Sample count of references to valid blocks.
system.cpu.dcache.tags.avg_refs            143.765962                       # Average number of references to valid blocks.
system.cpu.dcache.tags.warmup_cycle        3525894500                       # Cycle when the warmup percentage was hit.
system.cpu.dcache.tags.occ_blocks::cpu.data  2042.154693                       # Average occupied blocks per requestor
system.cpu.dcache.tags.occ_percent::cpu.data     0.997146                       # Average percentage of cache occupancy
system.cpu.dcache.tags.occ_percent::total     0.997146                       # Average percentage of cache occupancy
system.cpu.dcache.tags.occ_task_id_blocks::1024         2048                       # Occupied blocks per task id
system.cpu.dcache.tags.age_task_id_blocks_1024::1            2                       # Occupied blocks per task id
system.cpu.dcache.tags.age_task_id_blocks_1024::2           16                       # Occupied blocks per task id
system.cpu.dcache.tags.age_task_id_blocks_1024::3         1422                       # Occupied blocks per task id
system.cpu.dcache.tags.age_task_id_blocks_1024::4          608                       # Occupied blocks per task id
system.cpu.dcache.tags.occ_task_id_percent::1024            1                       # Percentage of cache occupancy per task id
system.cpu.dcache.tags.tag_accesses         594015469                       # Number of tag accesses
system.cpu.dcache.tags.data_accesses        594015469                       # Number of data accesses
system.cpu.dcache.ReadReq_hits::cpu.data    224491166                       # number of ReadReq hits
system.cpu.dcache.ReadReq_hits::total       224491166                       # number of ReadReq hits
system.cpu.dcache.WriteReq_hits::cpu.data     69449700                       # number of WriteReq hits
system.cpu.dcache.WriteReq_hits::total       69449700                       # number of WriteReq hits
system.cpu.dcache.demand_hits::cpu.data     293940866                       # number of demand (read+write) hits
system.cpu.dcache.demand_hits::total        293940866                       # number of demand (read+write) hits
system.cpu.dcache.overall_hits::cpu.data    293940866                       # number of overall hits
system.cpu.dcache.overall_hits::total       293940866                       # number of overall hits
system.cpu.dcache.ReadReq_misses::cpu.data      1439192                       # number of ReadReq misses
system.cpu.dcache.ReadReq_misses::total       1439192                       # number of ReadReq misses
system.cpu.dcache.WriteReq_misses::cpu.data       589003                       # number of WriteReq misses
system.cpu.dcache.WriteReq_misses::total       589003                       # number of WriteReq misses
system.cpu.dcache.SoftPFReq_misses::cpu.data        16384                       # number of SoftPFReq misses
system.cpu.dcache.SoftPFReq_misses::total        16384                       # number of SoftPFReq misses
system.cpu.dcache.demand_misses::cpu.data      2028195                       # number of demand (read+write) misses
system.cpu.dcache.demand_misses::total        2028195                       # number of demand (read+write) misses
system.cpu.dcache.overall_misses::cpu.data      2044579                       # number of overall misses
system.cpu.dcache.overall_misses::total       2044579                       # number of overall misses
system.cpu.dcache.ReadReq_miss_latency::cpu.data  40065260000                       # number of ReadReq miss cycles
system.cpu.dcache.ReadReq_miss_latency::total  40065260000                       # number of ReadReq miss cycles
system.cpu.dcache.WriteReq_miss_latency::cpu.data  30692634000                       # number of WriteReq miss cycles
system.cpu.dcache.WriteReq_miss_latency::total  30692634000                       # number of WriteReq miss cycles
system.cpu.dcache.demand_miss_latency::cpu.data  70757894000                       # number of demand (read+write) miss cycles
system.cpu.dcache.demand_miss_latency::total  70757894000                       # number of demand (read+write) miss cycles
system.cpu.dcache.overall_miss_latency::cpu.data  70757894000                       # number of overall miss cycles
system.cpu.dcache.overall_miss_latency::total  70757894000                       # number of overall miss cycles
system.cpu.dcache.ReadReq_accesses::cpu.data    225930358                       # number of ReadReq accesses(hits+misses)
system.cpu.dcache.ReadReq_accesses::total    225930358                       # number of ReadReq accesses(hits+misses)
system.cpu.dcache.WriteReq_accesses::cpu.data     70038703                       # number of WriteReq accesses(hits+misses)
system.cpu.dcache.WriteReq_accesses::total     70038703                       # number of WriteReq accesses(hits+misses)
system.cpu.dcache.SoftPFReq_accesses::cpu.data        16384                       # number of SoftPFReq accesses(hits+misses)
system.cpu.dcache.SoftPFReq_accesses::total        16384                       # number of SoftPFReq accesses(hits+misses)
system.cpu.dcache.demand_accesses::cpu.data    295969061                       # number of demand (read+write) accesses
system.cpu.dcache.demand_accesses::total    295969061                       # number of demand (read+write) accesses
system.cpu.dcache.overall_accesses::cpu.data    295985445                       # number of overall (read+write) accesses
system.cpu.dcache.overall_accesses::total    295985445                       # number of overall (read+write) accesses
system.cpu.dcache.ReadReq_miss_rate::cpu.data     0.006370                       # miss rate for ReadReq accesses
system.cpu.dcache.ReadReq_miss_rate::total     0.006370                       # miss rate for ReadReq accesses
system.cpu.dcache.WriteReq_miss_rate::cpu.data     0.008410                       # miss rate for WriteReq accesses
system.cpu.dcache.WriteReq_miss_rate::total     0.008410                       # miss rate for WriteReq accesses
system.cpu.dcache.SoftPFReq_miss_rate::cpu.data            1                       # miss rate for SoftPFReq accesses
system.cpu.dcache.SoftPFReq_miss_rate::total            1                       # miss rate for SoftPFReq accesses
system.cpu.dcache.demand_miss_rate::cpu.data     0.006853                       # miss rate for demand accesses
system.cpu.dcache.demand_miss_rate::total     0.006853                       # miss rate for demand accesses
system.cpu.dcache.overall_miss_rate::cpu.data     0.006908                       # miss rate for overall accesses
system.cpu.dcache.overall_miss_rate::total     0.006908                       # miss rate for overall accesses
system.cpu.dcache.ReadReq_avg_miss_latency::cpu.data 27838.717836                       # average ReadReq miss latency
system.cpu.dcache.ReadReq_avg_miss_latency::total 27838.717836                       # average ReadReq miss latency
system.cpu.dcache.WriteReq_avg_miss_latency::cpu.data 52109.469731                       # average WriteReq miss latency
system.cpu.dcache.WriteReq_avg_miss_latency::total 52109.469731                       # average WriteReq miss latency
system.cpu.dcache.demand_avg_miss_latency::cpu.data 34887.125745                       # average overall miss latency
system.cpu.dcache.demand_avg_miss_latency::total 34887.125745                       # average overall miss latency
system.cpu.dcache.overall_avg_miss_latency::cpu.data 34607.561752                       # average overall miss latency
system.cpu.dcache.overall_avg_miss_latency::total 34607.561752                       # average overall miss latency
system.cpu.dcache.blocked_cycles::no_mshrs       235679                       # number of cycles access was blocked
system.cpu.dcache.blocked_cycles::no_targets            0                       # number of cycles access was blocked
system.cpu.dcache.blocked::no_mshrs              5356                       # number of cycles access was blocked
system.cpu.dcache.blocked::no_targets               0                       # number of cycles access was blocked
system.cpu.dcache.avg_blocked_cycles::no_mshrs    44.002801                       # average number of cycles each access was blocked
system.cpu.dcache.avg_blocked_cycles::no_targets          nan                       # average number of cycles each access was blocked
system.cpu.dcache.fast_writes                       0                       # number of fast writes performed
system.cpu.dcache.cache_copies                      0                       # number of cache copies performed
system.cpu.dcache.writebacks::writebacks       956649                       # number of writebacks
system.cpu.dcache.writebacks::total            956649                       # number of writebacks
system.cpu.dcache.ReadReq_mshr_misses::cpu.data      1439192                       # number of ReadReq MSHR misses
system.cpu.dcache.ReadReq_mshr_misses::total      1439192                       # number of ReadReq MSHR misses
system.cpu.dcache.WriteReq_mshr_misses::cpu.data       589003                       # number of WriteReq MSHR misses
system.cpu.dcache.WriteReq_mshr_misses::total       589003                       # number of WriteReq MSHR misses
system.cpu.dcache.SoftPFReq_mshr_misses::cpu.data        16384                       # number of SoftPFReq MSHR misses
system.cpu.dcache.SoftPFReq_mshr_misses::total        16384                       # number of SoftPFReq MSHR misses
system.cpu.dcache.demand_mshr_misses::cpu.data      2028195                       # number of demand (read+write) MSHR misses
system.cpu.dcache.demand_mshr_misses::total      2028195                       # number of demand (read+write) MSHR misses
system.cpu.dcache.overall_mshr_misses::cpu.data      2044579                       # number of overall MSHR misses
system.cpu.dcache.overall_mshr_misses::total      2044579                       # number of overall MSHR misses
system.cpu.dcache.ReadReq_mshr_miss_latency::cpu.data  38626068000                       # number of ReadReq MSHR miss cycles
system.cpu.dcache.ReadReq_mshr_miss_latency::total  38626068000                       # number of ReadReq MSHR miss cycles
system.cpu.dcache.WriteReq_mshr_miss_latency::cpu.data  30103631000                       # number of WriteReq MSHR miss cycles
system.cpu.dcache.WriteReq_mshr_miss_latency::total  30103631000                       # number of WriteReq MSHR miss cycles
system.cpu.dcache.SoftPFReq_mshr_miss_latency::cpu.data   1287209489                       # number of SoftPFReq MSHR miss cycles
system.cpu.dcache.SoftPFReq_mshr_miss_latency::total   1287209489                       # number of SoftPFReq MSHR miss cycles
system.cpu.dcache.demand_mshr_miss_latency::cpu.data  68729699000                       # number of demand (read+write) MSHR miss cycles
system.cpu.dcache.demand_mshr_miss_latency::total  68729699000                       # number of demand (read+write) MSHR miss cycles
system.cpu.dcache.overall_mshr_miss_latency::cpu.data  70016908489                       # number of overall MSHR miss cycles
system.cpu.dcache.overall_mshr_miss_latency::total  70016908489                       # number of overall MSHR miss cycles
system.cpu.dcache.ReadReq_mshr_miss_rate::cpu.data     0.006370                       # mshr miss rate for ReadReq accesses
system.cpu.dcache.ReadReq_mshr_miss_rate::total     0.006370                       # mshr miss rate for ReadReq accesses
system.cpu.dcache.WriteReq_mshr_miss_rate::cpu.data     0.008410                       # mshr miss rate for WriteReq accesses
system.cpu.dcache.WriteReq_mshr_miss_rate::total     0.008410                       # mshr miss rate for WriteReq accesses
system.cpu.dcache.SoftPFReq_mshr_miss_rate::cpu.data            1                       # mshr miss rate for SoftPFReq accesses
system.cpu.dcache.SoftPFReq_mshr_miss_rate::total            1                       # mshr miss rate for SoftPFReq accesses
system.cpu.dcache.demand_mshr_miss_rate::cpu.data     0.006853                       # mshr miss rate for demand accesses
system.cpu.dcache.demand_mshr_miss_rate::total     0.006853                       # mshr miss rate for demand accesses
system.cpu.dcache.overall_mshr_miss_rate::cpu.data     0.006908                       # mshr miss rate for overall accesses
system.cpu.dcache.overall_mshr_miss_rate::total     0.006908                       # mshr miss rate for overall accesses
system.cpu.dcache.ReadReq_avg_mshr_miss_latency::cpu.data 26838.717836                       # average ReadReq mshr miss latency
system.cpu.dcache.ReadReq_avg_mshr_miss_latency::total 26838.717836                       # average ReadReq mshr miss latency
system.cpu.dcache.WriteReq_avg_mshr_miss_latency::cpu.data 51109.469731                       # average WriteReq mshr miss latency
system.cpu.dcache.WriteReq_avg_mshr_miss_latency::total 51109.469731                       # average WriteReq mshr miss latency
system.cpu.dcache.SoftPFReq_avg_mshr_miss_latency::cpu.data 78565.032288                       # average SoftPFReq mshr miss latency
system.cpu.dcache.SoftPFReq_avg_mshr_miss_latency::total 78565.032288                       # average SoftPFReq mshr miss latency
system.cpu.dcache.demand_avg_mshr_miss_latency::cpu.data 33887.125745                       # average overall mshr miss latency
system.cpu.dcache.demand_avg_mshr_miss_latency::total 33887.125745                       # average overall mshr miss latency
system.cpu.dcache.overall_avg_mshr_miss_latency::cpu.data 34245.147040                       # average overall mshr miss latency
system.cpu.dcache.overall_avg_mshr_miss_latency::total 34245.147040                       # average overall mshr miss latency
system.cpu.dcache.no_allocate_misses                0                       # Number of misses that were no-allocate
system.cpu.dtb_walker_cache.tags.replacements            0                       # number of replacements
system.cpu.dtb_walker_cache.tags.tagsinuse            0                       # Cycle average of tags in use
system.cpu.dtb_walker_cache.tags.total_refs            0                       # Total number of references to valid blocks.
system.cpu.dtb_walker_cache.tags.sampled_refs            0                       # Sample count of references to valid blocks.
system.cpu.dtb_walker_cache.tags.avg_refs          nan                       # Average number of references to valid blocks.
system.cpu.dtb_walker_cache.tags.warmup_cycle            0                       # Cycle when the warmup percentage was hit.
system.cpu.dtb_walker_cache.tags.tag_accesses            0                       # Number of tag accesses
system.cpu.dtb_walker_cache.tags.data_accesses            0                       # Number of data accesses
system.cpu.dtb_walker_cache.blocked_cycles::no_mshrs            0                       # number of cycles access was blocked
system.cpu.dtb_walker_cache.blocked_cycles::no_targets            0                       # number of cycles access was blocked
system.cpu.dtb_walker_cache.blocked::no_mshrs            0                       # number of cycles access was blocked
system.cpu.dtb_walker_cache.blocked::no_targets            0                       # number of cycles access was blocked
system.cpu.dtb_walker_cache.avg_blocked_cycles::no_mshrs          nan                       # average number of cycles each access was blocked
system.cpu.dtb_walker_cache.avg_blocked_cycles::no_targets          nan                       # average number of cycles each access was blocked
system.cpu.dtb_walker_cache.fast_writes             0                       # number of fast writes performed
system.cpu.dtb_walker_cache.cache_copies            0                       # number of cache copies performed
system.cpu.dtb_walker_cache.no_allocate_misses            0                       # Number of misses that were no-allocate
system.cpu.icache.tags.replacements                45                       # number of replacements
system.cpu.icache.tags.tagsinuse           670.924154                       # Cycle average of tags in use
system.cpu.icache.tags.total_refs           687396859                       # Total number of references to valid blocks.
system.cpu.icache.tags.sampled_refs              1001                       # Sample count of references to valid blocks.
system.cpu.icache.tags.avg_refs          686710.148851                       # Average number of references to valid blocks.
system.cpu.icache.tags.warmup_cycle                 0                       # Cycle when the warmup percentage was hit.
system.cpu.icache.tags.occ_blocks::cpu.inst   670.924154                       # Average occupied blocks per requestor
system.cpu.icache.tags.occ_percent::cpu.inst     0.327600                       # Average percentage of cache occupancy
system.cpu.icache.tags.occ_percent::total     0.327600                       # Average percentage of cache occupancy
system.cpu.icache.tags.occ_task_id_blocks::1024          956                       # Occupied blocks per task id
system.cpu.icache.tags.age_task_id_blocks_1024::1            7                       # Occupied blocks per task id
system.cpu.icache.tags.age_task_id_blocks_1024::3           25                       # Occupied blocks per task id
system.cpu.icache.tags.age_task_id_blocks_1024::4          924                       # Occupied blocks per task id
system.cpu.icache.tags.occ_task_id_percent::1024     0.466797                       # Percentage of cache occupancy per task id
system.cpu.icache.tags.tag_accesses        1374796721                       # Number of tag accesses
system.cpu.icache.tags.data_accesses       1374796721                       # Number of data accesses
system.cpu.icache.ReadReq_hits::cpu.inst    687396859                       # number of ReadReq hits
system.cpu.icache.ReadReq_hits::total       687396859                       # number of ReadReq hits
system.cpu.icache.demand_hits::cpu.inst     687396859                       # number of demand (read+write) hits
system.cpu.icache.demand_hits::total        687396859                       # number of demand (read+write) hits
system.cpu.icache.overall_hits::cpu.inst    687396859                       # number of overall hits
system.cpu.icache.overall_hits::total       687396859                       # number of overall hits
system.cpu.icache.ReadReq_misses::cpu.inst         1001                       # number of ReadReq misses
system.cpu.icache.ReadReq_misses::total          1001                       # number of ReadReq misses
system.cpu.icache.demand_misses::cpu.inst         1001                       # number of demand (read+write) misses
system.cpu.icache.demand_misses::total           1001                       # number of demand (read+write) misses
system.cpu.icache.overall_misses::cpu.inst         1001                       # number of overall misses
system.cpu.icache.overall_misses::total          1001                       # number of overall misses
system.cpu.icache.ReadReq_miss_latency::cpu.inst     78493000                       # number of ReadReq miss cycles
system.cpu.icache.ReadReq_miss_latency::total     78493000                       # number of ReadReq miss cycles
system.cpu.icache.demand_miss_latency::cpu.inst     78493000                       # number of demand (read+write) miss cycles
system.cpu.icache.demand_miss_latency::total     78493000                       # number of demand (read+write) miss cycles
system.cpu.icache.overall_miss_latency::cpu.inst     78493000                       # number of overall miss cycles
system.cpu.icache.overall_miss_latency::total     78493000                       # number of overall miss cycles
system.cpu.icache.ReadReq_accesses::cpu.inst    687397860                       # number of ReadReq accesses(hits+misses)
system.cpu.icache.ReadReq_accesses::total    687397860                       # number of ReadReq accesses(hits+misses)
system.cpu.icache.demand_accesses::cpu.inst    687397860                       # number of demand (read+write) accesses
system.cpu.icache.demand_accesses::total    687397860                       # number of demand (read+write) accesses
system.cpu.icache.overall_accesses::cpu.inst    687397860                       # number of overall (read+write) accesses
system.cpu.icache.overall_accesses::total    687397860                       # number of overall (read+write) accesses
system.cpu.icache.ReadReq_miss_rate::cpu.inst     0.000001                       # miss rate for ReadReq accesses
system.cpu.icache.ReadReq_miss_rate::total     0.000001                       # miss rate for ReadReq accesses
system.cpu.icache.demand_miss_rate::cpu.inst     0.000001                       # miss rate for demand accesses
system.cpu.icache.demand_miss_rate::total     0.000001                       # miss rate for demand accesses
system.cpu.icache.overall_miss_rate::cpu.inst     0.000001                       # miss rate for overall accesses
system.cpu.icache.overall_miss_rate::total     0.000001                       # miss rate for overall accesses
system.cpu.icache.ReadReq_avg_miss_latency::cpu.inst 78414.585415                       # average ReadReq miss latency
system.cpu.icache.ReadReq_avg_miss_latency::total 78414.585415                       # average ReadReq miss latency
system.cpu.icache.demand_avg_miss_latency::cpu.inst 78414.585415                       # average overall miss latency
system.cpu.icache.demand_avg_miss_latency::total 78414.585415                       # average overall miss latency
system.cpu.icache.overall_avg_miss_latency::cpu.inst 78414.585415                       # average overall miss latency
system.cpu.icache.overall_avg_miss_latency::total 78414.585415                       # average overall miss latency
system.cpu.icache.blocked_cycles::no_mshrs            0                       # number of cycles access was blocked
system.cpu.icache.blocked_cycles::no_targets            0                       # number of cycles access was blocked
system.cpu.icache.blocked::no_mshrs                 0                       # number of cycles access was blocked
system.cpu.icache.blocked::no_targets               0                       # number of cycles access was blocked
system.cpu.icache.avg_blocked_cycles::no_mshrs          nan                       # average number of cycles each access was blocked
system.cpu.icache.avg_blocked_cycles::no_targets          nan                       # average number of cycles each access was blocked
system.cpu.icache.fast_writes                       0                       # number of fast writes performed
system.cpu.icache.cache_copies                      0                       # number of cache copies performed
system.cpu.icache.writebacks::writebacks           45                       # number of writebacks
system.cpu.icache.writebacks::total                45                       # number of writebacks
system.cpu.icache.ReadReq_mshr_misses::cpu.inst         1001                       # number of ReadReq MSHR misses
system.cpu.icache.ReadReq_mshr_misses::total         1001                       # number of ReadReq MSHR misses
system.cpu.icache.demand_mshr_misses::cpu.inst         1001                       # number of demand (read+write) MSHR misses
system.cpu.icache.demand_mshr_misses::total         1001                       # number of demand (read+write) MSHR misses
system.cpu.icache.overall_mshr_misses::cpu.inst         1001                       # number of overall MSHR misses
system.cpu.icache.overall_mshr_misses::total         1001                       # number of overall MSHR misses
system.cpu.icache.ReadReq_mshr_miss_latency::cpu.inst     77492000                       # number of ReadReq MSHR miss cycles
system.cpu.icache.ReadReq_mshr_miss_latency::total     77492000                       # number of ReadReq MSHR miss cycles
system.cpu.icache.demand_mshr_miss_latency::cpu.inst     77492000                       # number of demand (read+write) MSHR miss cycles
system.cpu.icache.demand_mshr_miss_latency::total     77492000                       # number of demand (read+write) MSHR miss cycles
system.cpu.icache.overall_mshr_miss_latency::cpu.inst     77492000                       # number of overall MSHR miss cycles
system.cpu.icache.overall_mshr_miss_latency::total     77492000                       # number of overall MSHR miss cycles
system.cpu.icache.ReadReq_mshr_miss_rate::cpu.inst     0.000001                       # mshr miss rate for ReadReq accesses
system.cpu.icache.ReadReq_mshr_miss_rate::total     0.000001                       # mshr miss rate for ReadReq accesses
system.cpu.icache.demand_mshr_miss_rate::cpu.inst     0.000001                       # mshr miss rate for demand accesses
system.cpu.icache.demand_mshr_miss_rate::total     0.000001                       # mshr miss rate for demand accesses
system.cpu.icache.overall_mshr_miss_rate::cpu.inst     0.000001                       # mshr miss rate for overall accesses
system.cpu.icache.overall_mshr_miss_rate::total     0.000001                       # mshr miss rate for overall accesses
system.cpu.icache.ReadReq_avg_mshr_miss_latency::cpu.inst 77414.585415                       # average ReadReq mshr miss latency
system.cpu.icache.ReadReq_avg_mshr_miss_latency::total 77414.585415                       # average ReadReq mshr miss latency
system.cpu.icache.demand_avg_mshr_miss_latency::cpu.inst 77414.585415                       # average overall mshr miss latency
system.cpu.icache.demand_avg_mshr_miss_latency::total 77414.585415                       # average overall mshr miss latency
system.cpu.icache.overall_avg_mshr_miss_latency::cpu.inst 77414.585415                       # average overall mshr miss latency
system.cpu.icache.overall_avg_mshr_miss_latency::total 77414.585415                       # average overall mshr miss latency
system.cpu.icache.no_allocate_misses                0                       # Number of misses that were no-allocate
system.cpu.itb_walker_cache.tags.replacements            0                       # number of replacements
system.cpu.itb_walker_cache.tags.tagsinuse            0                       # Cycle average of tags in use
system.cpu.itb_walker_cache.tags.total_refs            0                       # Total number of references to valid blocks.
system.cpu.itb_walker_cache.tags.sampled_refs            0                       # Sample count of references to valid blocks.
system.cpu.itb_walker_cache.tags.avg_refs          nan                       # Average number of references to valid blocks.
system.cpu.itb_walker_cache.tags.warmup_cycle            0                       # Cycle when the warmup percentage was hit.
system.cpu.itb_walker_cache.tags.tag_accesses            0                       # Number of tag accesses
system.cpu.itb_walker_cache.tags.data_accesses            0                       # Number of data accesses
system.cpu.itb_walker_cache.blocked_cycles::no_mshrs            0                       # number of cycles access was blocked
system.cpu.itb_walker_cache.blocked_cycles::no_targets            0                       # number of cycles access was blocked
system.cpu.itb_walker_cache.blocked::no_mshrs            0                       # number of cycles access was blocked
system.cpu.itb_walker_cache.blocked::no_targets            0                       # number of cycles access was blocked
system.cpu.itb_walker_cache.avg_blocked_cycles::no_mshrs          nan                       # average number of cycles each access was blocked
system.cpu.itb_walker_cache.avg_blocked_cycles::no_targets          nan                       # average number of cycles each access was blocked
system.cpu.itb_walker_cache.fast_writes             0                       # number of fast writes performed
system.cpu.itb_walker_cache.cache_copies            0                       # number of cache copies performed
system.cpu.itb_walker_cache.no_allocate_misses            0                       # Number of misses that were no-allocate
system.l2.tags.replacements                    607252                       # number of replacements
system.l2.tags.tagsinuse                 16066.293424                       # Cycle average of tags in use
system.l2.tags.total_refs                     2875400                       # Total number of references to valid blocks.
system.l2.tags.sampled_refs                    623440                       # Sample count of references to valid blocks.
system.l2.tags.avg_refs                      4.612152                       # Average number of references to valid blocks.
system.l2.tags.warmup_cycle                3965122000                       # Cycle when the warmup percentage was hit.
system.l2.tags.occ_blocks::writebacks     6017.812915                       # Average occupied blocks per requestor
system.l2.tags.occ_blocks::cpu.inst         46.619065                       # Average occupied blocks per requestor
system.l2.tags.occ_blocks::cpu.data      10001.861445                       # Average occupied blocks per requestor
system.l2.tags.occ_percent::writebacks       0.367298                       # Average percentage of cache occupancy
system.l2.tags.occ_percent::cpu.inst         0.002845                       # Average percentage of cache occupancy
system.l2.tags.occ_percent::cpu.data         0.610465                       # Average percentage of cache occupancy
system.l2.tags.occ_percent::total            0.980609                       # Average percentage of cache occupancy
system.l2.tags.occ_task_id_blocks::1024         16188                       # Occupied blocks per task id
system.l2.tags.age_task_id_blocks_1024::1            9                       # Occupied blocks per task id
system.l2.tags.age_task_id_blocks_1024::2           10                       # Occupied blocks per task id
system.l2.tags.age_task_id_blocks_1024::3           38                       # Occupied blocks per task id
system.l2.tags.age_task_id_blocks_1024::4        16131                       # Occupied blocks per task id
system.l2.tags.occ_task_id_percent::1024     0.988037                       # Percentage of cache occupancy per task id
system.l2.tags.tag_accesses                  66622923                       # Number of tag accesses
system.l2.tags.data_accesses                 66622923                       # Number of data accesses
system.l2.WritebackDirty_hits::writebacks       956649                       # number of WritebackDirty hits
system.l2.WritebackDirty_hits::total           956649                       # number of WritebackDirty hits
system.l2.WritebackClean_hits::writebacks           45                       # number of WritebackClean hits
system.l2.WritebackClean_hits::total               45                       # number of WritebackClean hits
system.l2.ReadExReq_hits::cpu.data             281604                       # number of ReadExReq hits
system.l2.ReadExReq_hits::total                281604                       # number of ReadExReq hits
system.l2.ReadCleanReq_hits::cpu.inst               1                       # number of ReadCleanReq hits
system.l2.ReadCleanReq_hits::total                  1                       # number of ReadCleanReq hits
system.l2.ReadSharedReq_hits::cpu.data        1140160                       # number of ReadSharedReq hits
system.l2.ReadSharedReq_hits::total           1140160                       # number of ReadSharedReq hits
system.l2.demand_hits::cpu.inst                     1                       # number of demand (read+write) hits
system.l2.demand_hits::cpu.data               1421764                       # number of demand (read+write) hits
system.l2.demand_hits::total                  1421765                       # number of demand (read+write) hits
system.l2.overall_hits::cpu.inst                    1                       # number of overall hits
system.l2.overall_hits::cpu.data              1421764                       # number of overall hits
system.l2.overall_hits::total                 1421765                       # number of overall hits
system.l2.ReadExReq_misses::cpu.data           307399                       # number of ReadExReq misses
system.l2.ReadExReq_misses::total              307399                       # number of ReadExReq misses
system.l2.ReadCleanReq_misses::cpu.inst          1000                       # number of ReadCleanReq misses
system.l2.ReadCleanReq_misses::total             1000                       # number of ReadCleanReq misses
system.l2.ReadSharedReq_misses::cpu.data       315416                       # number of ReadSharedReq misses
system.l2.ReadSharedReq_misses::total          315416                       # number of ReadSharedReq misses
system.l2.demand_misses::cpu.inst                1000                       # number of demand (read+write) misses
system.l2.demand_misses::cpu.data              622815                       # number of demand (read+write) misses
system.l2.demand_misses::total                 623815                       # number of demand (read+write) misses
system.l2.overall_misses::cpu.inst               1000                       # number of overall misses
system.l2.overall_misses::cpu.data             622815                       # number of overall misses
system.l2.overall_misses::total                623815                       # number of overall misses
system.l2.ReadExReq_miss_latency::cpu.data  26263283500                       # number of ReadExReq miss cycles
system.l2.ReadExReq_miss_latency::total   26263283500                       # number of ReadExReq miss cycles
system.l2.ReadCleanReq_miss_latency::cpu.inst     75978500                       # number of ReadCleanReq miss cycles
system.l2.ReadCleanReq_miss_latency::total     75978500                       # number of ReadCleanReq miss cycles
system.l2.ReadSharedReq_miss_latency::cpu.data  25758193000                       # number of ReadSharedReq miss cycles
system.l2.ReadSharedReq_miss_latency::total  25758193000                       # number of ReadSharedReq miss cycles
system.l2.demand_miss_latency::cpu.inst      75978500                       # number of demand (read+write) miss cycles
system.l2.demand_miss_latency::cpu.data   52021476500                       # number of demand (read+write) miss cycles
system.l2.demand_miss_latency::total      52097455000                       # number of demand (read+write) miss cycles
system.l2.overall_miss_latency::cpu.inst     75978500                       # number of overall miss cycles
system.l2.overall_miss_latency::cpu.data  52021476500                       # number of overall miss cycles
system.l2.overall_miss_latency::total     52097455000                       # number of overall miss cycles
system.l2.WritebackDirty_accesses::writebacks       956649                       # number of WritebackDirty accesses(hits+misses)
system.l2.WritebackDirty_accesses::total       956649                       # number of WritebackDirty accesses(hits+misses)
system.l2.WritebackClean_accesses::writebacks           45                       # number of WritebackClean accesses(hits+misses)
system.l2.WritebackClean_accesses::total           45                       # number of WritebackClean accesses(hits+misses)
system.l2.ReadExReq_accesses::cpu.data         589003                       # number of ReadExReq accesses(hits+misses)
system.l2.ReadExReq_accesses::total            589003                       # number of ReadExReq accesses(hits+misses)
system.l2.ReadCleanReq_accesses::cpu.inst         1001                       # number of ReadCleanReq accesses(hits+misses)
system.l2.ReadCleanReq_accesses::total           1001                       # number of ReadCleanReq accesses(hits+misses)
system.l2.ReadSharedReq_accesses::cpu.data      1455576                       # number of ReadSharedReq accesses(hits+misses)
system.l2.ReadSharedReq_accesses::total       1455576                       # number of ReadSharedReq accesses(hits+misses)
system.l2.demand_accesses::cpu.inst              1001                       # number of demand (read+write) accesses
system.l2.demand_accesses::cpu.data           2044579                       # number of demand (read+write) accesses
system.l2.demand_accesses::total              2045580                       # number of demand (read+write) accesses
system.l2.overall_accesses::cpu.inst             1001                       # number of overall (read+write) accesses
system.l2.overall_accesses::cpu.data          2044579                       # number of overall (read+write) accesses
system.l2.overall_accesses::total             2045580                       # number of overall (read+write) accesses
system.l2.ReadExReq_miss_rate::cpu.data      0.521897                       # miss rate for ReadExReq accesses
system.l2.ReadExReq_miss_rate::total         0.521897                       # miss rate for ReadExReq accesses
system.l2.ReadCleanReq_miss_rate::cpu.inst     0.999001                       # miss rate for ReadCleanReq accesses
system.l2.ReadCleanReq_miss_rate::total      0.999001                       # miss rate for ReadCleanReq accesses
system.l2.ReadSharedReq_miss_rate::cpu.data     0.216695                       # miss rate for ReadSharedReq accesses
system.l2.ReadSharedReq_miss_rate::total     0.216695                       # miss rate for ReadSharedReq accesses
system.l2.demand_miss_rate::cpu.inst         0.999001                       # miss rate for demand accesses
system.l2.demand_miss_rate::cpu.data         0.304618                       # miss rate for demand accesses
system.l2.demand_miss_rate::total            0.304958                       # miss rate for demand accesses
system.l2.overall_miss_rate::cpu.inst        0.999001                       # miss rate for overall accesses
system.l2.overall_miss_rate::cpu.data        0.304618                       # miss rate for overall accesses
system.l2.overall_miss_rate::total           0.304958                       # miss rate for overall accesses
system.l2.ReadExReq_avg_miss_latency::cpu.data 85437.114304                       # average ReadExReq miss latency
system.l2.ReadExReq_avg_miss_latency::total 85437.114304                       # average ReadExReq miss latency
system.l2.ReadCleanReq_avg_miss_latency::cpu.inst 75978.500000                       # average ReadCleanReq miss latency
system.l2.ReadCleanReq_avg_miss_latency::total 75978.500000                       # average ReadCleanReq miss latency
system.l2.ReadSharedReq_avg_miss_latency::cpu.data 81664.192685                       # average ReadSharedReq miss latency
system.l2.ReadSharedReq_avg_miss_latency::total 81664.192685                       # average ReadSharedReq miss latency
system.l2.demand_avg_miss_latency::cpu.inst 75978.500000                       # average overall miss latency
system.l2.demand_avg_miss_latency::cpu.data 83526.370592                       # average overall miss latency
system.l2.demand_avg_miss_latency::total 83514.271058                       # average overall miss latency
system.l2.overall_avg_miss_latency::cpu.inst 75978.500000                       # average overall miss latency
system.l2.overall_avg_miss_latency::cpu.data 83526.370592                       # average overall miss latency
system.l2.overall_avg_miss_latency::total 83514.271058                       # average overall miss latency
system.l2.blocked_cycles::no_mshrs                  0                       # number of cycles access was blocked
system.l2.blocked_cycles::no_targets                0                       # number of cycles access was blocked
system.l2.blocked::no_mshrs                         0                       # number of cycles access was blocked
system.l2.blocked::no_targets                       0                       # number of cycles access was blocked
system.l2.avg_blocked_cycles::no_mshrs            nan                       # average number of cycles each access was blocked
system.l2.avg_blocked_cycles::no_targets          nan                       # average number of cycles each access was blocked
system.l2.fast_writes                               0                       # number of fast writes performed
system.l2.cache_copies                              0                       # number of cache copies performed
system.l2.writebacks::writebacks               374755                       # number of writebacks
system.l2.writebacks::total                    374755                       # number of writebacks
system.l2.CleanEvict_mshr_misses::writebacks           18                       # number of CleanEvict MSHR misses
system.l2.CleanEvict_mshr_misses::total            18                       # number of CleanEvict MSHR misses
system.l2.ReadExReq_mshr_misses::cpu.data       307399                       # number of ReadExReq MSHR misses
system.l2.ReadExReq_mshr_misses::total         307399                       # number of ReadExReq MSHR misses
system.l2.ReadCleanReq_mshr_misses::cpu.inst         1000                       # number of ReadCleanReq MSHR misses
system.l2.ReadCleanReq_mshr_misses::total         1000                       # number of ReadCleanReq MSHR misses
system.l2.ReadSharedReq_mshr_misses::cpu.data       315416                       # number of ReadSharedReq MSHR misses
system.l2.ReadSharedReq_mshr_misses::total       315416                       # number of ReadSharedReq MSHR misses
system.l2.demand_mshr_misses::cpu.inst           1000                       # number of demand (read+write) MSHR misses
system.l2.demand_mshr_misses::cpu.data         622815                       # number of demand (read+write) MSHR misses
system.l2.demand_mshr_misses::total            623815                       # number of demand (read+write) MSHR misses
system.l2.overall_mshr_misses::cpu.inst          1000                       # number of overall MSHR misses
system.l2.overall_mshr_misses::cpu.data        622815                       # number of overall MSHR misses
system.l2.overall_mshr_misses::total           623815                       # number of overall MSHR misses
system.l2.ReadExReq_mshr_miss_latency::cpu.data  23189293500                       # number of ReadExReq MSHR miss cycles
system.l2.ReadExReq_mshr_miss_latency::total  23189293500                       # number of ReadExReq MSHR miss cycles
system.l2.ReadCleanReq_mshr_miss_latency::cpu.inst     65978500                       # number of ReadCleanReq MSHR miss cycles
system.l2.ReadCleanReq_mshr_miss_latency::total     65978500                       # number of ReadCleanReq MSHR miss cycles
system.l2.ReadSharedReq_mshr_miss_latency::cpu.data  22604033000                       # number of ReadSharedReq MSHR miss cycles
system.l2.ReadSharedReq_mshr_miss_latency::total  22604033000                       # number of ReadSharedReq MSHR miss cycles
system.l2.demand_mshr_miss_latency::cpu.inst     65978500                       # number of demand (read+write) MSHR miss cycles
system.l2.demand_mshr_miss_latency::cpu.data  45793326500                       # number of demand (read+write) MSHR miss cycles
system.l2.demand_mshr_miss_latency::total  45859305000                       # number of demand (read+write) MSHR miss cycles
system.l2.overall_mshr_miss_latency::cpu.inst     65978500                       # number of overall MSHR miss cycles
system.l2.overall_mshr_miss_latency::cpu.data  45793326500                       # number of overall MSHR miss cycles
system.l2.overall_mshr_miss_latency::total  45859305000                       # number of overall MSHR miss cycles
system.l2.CleanEvict_mshr_miss_rate::writebacks          inf                       # mshr miss rate for CleanEvict accesses
system.l2.CleanEvict_mshr_miss_rate::total          inf                       # mshr miss rate for CleanEvict accesses
system.l2.ReadExReq_mshr_miss_rate::cpu.data     0.521897                       # mshr miss rate for ReadExReq accesses
system.l2.ReadExReq_mshr_miss_rate::total     0.521897                       # mshr miss rate for ReadExReq accesses
system.l2.ReadCleanReq_mshr_miss_rate::cpu.inst     0.999001                       # mshr miss rate for ReadCleanReq accesses
system.l2.ReadCleanReq_mshr_miss_rate::total     0.999001                       # mshr miss rate for ReadCleanReq accesses
system.l2.ReadSharedReq_mshr_miss_rate::cpu.data     0.216695                       # mshr miss rate for ReadSharedReq accesses
system.l2.ReadSharedReq_mshr_miss_rate::total     0.216695                       # mshr miss rate for ReadSharedReq accesses
system.l2.demand_mshr_miss_rate::cpu.inst     0.999001                       # mshr miss rate for demand accesses
system.l2.demand_mshr_miss_rate::cpu.data     0.304618                       # mshr miss rate for demand accesses
system.l2.demand_mshr_miss_rate::total       0.304958                       # mshr miss rate for demand accesses
system.l2.overall_mshr_miss_rate::cpu.inst     0.999001                       # mshr miss rate for overall accesses
system.l2.overall_mshr_miss_rate::cpu.data     0.304618                       # mshr miss rate for overall accesses
system.l2.overall_mshr_miss_rate::total      0.304958                       # mshr miss rate for overall accesses
system.l2.ReadExReq_avg_mshr_miss_latency::cpu.data 75437.114304                       # average ReadExReq mshr miss latency
system.l2.ReadExReq_avg_mshr_miss_latency::total 75437.114304                       # average ReadExReq mshr miss latency
system.l2.ReadCleanReq_avg_mshr_miss_latency::cpu.inst 65978.500000                       # average ReadCleanReq mshr miss latency
system.l2.ReadCleanReq_avg_mshr_miss_latency::total 65978.500000                       # average ReadCleanReq mshr miss latency
system.l2.ReadSharedReq_avg_mshr_miss_latency::cpu.data 71664.192685                       # average ReadSharedReq mshr miss latency
system.l2.ReadSharedReq_avg_mshr_miss_latency::total 71664.192685                       # average ReadSharedReq mshr miss latency
system.l2.demand_avg_mshr_miss_latency::cpu.inst 65978.500000                       # average overall mshr miss latency
system.l2.demand_avg_mshr_miss_latency::cpu.data 73526.370592                       # average overall mshr miss latency
system.l2.demand_avg_mshr_miss_latency::total 73514.271058                       # average overall mshr miss latency
system.l2.overall_avg_mshr_miss_latency::cpu.inst 65978.500000                       # average overall mshr miss latency
system.l2.overall_avg_mshr_miss_latency::cpu.data 73526.370592                       # average overall mshr miss latency
system.l2.overall_avg_mshr_miss_latency::total 73514.271058                       # average overall mshr miss latency
system.l2.no_allocate_misses                        0                       # Number of misses that were no-allocate
system.membus.trans_dist::ReadResp             316416                       # Transaction distribution
system.membus.trans_dist::WritebackDirty       374755                       # Transaction distribution
system.membus.trans_dist::CleanEvict           231749                       # Transaction distribution
system.membus.trans_dist::ReadExReq            307399                       # Transaction distribution
system.membus.trans_dist::ReadExResp           307399                       # Transaction distribution
system.membus.trans_dist::ReadSharedReq        316416                       # Transaction distribution
system.membus.pkt_count_system.l2.mem_side::system.mem_ctrls.port      1854134                       # Packet count per connected master and slave (bytes)
system.membus.pkt_count_system.l2.mem_side::total      1854134                       # Packet count per connected master and slave (bytes)
system.membus.pkt_count::total                1854134                       # Packet count per connected master and slave (bytes)
system.membus.pkt_size_system.l2.mem_side::system.mem_ctrls.port     63908480                       # Cumulative packet size per connected master and slave (bytes)
system.membus.pkt_size_system.l2.mem_side::total     63908480                       # Cumulative packet size per connected master and slave (bytes)
system.membus.pkt_size::total                63908480                       # Cumulative packet size per connected master and slave (bytes)
system.membus.snoops                                0                       # Total snoops (count)
system.membus.snoop_fanout::samples           1230319                       # Request fanout histogram
system.membus.snoop_fanout::mean                    0                       # Request fanout histogram
system.membus.snoop_fanout::stdev                   0                       # Request fanout histogram
system.membus.snoop_fanout::underflows              0      0.00%      0.00% # Request fanout histogram
system.membus.snoop_fanout::0                 1230319    100.00%    100.00% # Request fanout histogram
system.membus.snoop_fanout::1                       0      0.00%    100.00% # Request fanout histogram
system.membus.snoop_fanout::overflows               0      0.00%    100.00% # Request fanout histogram
system.membus.snoop_fanout::min_value               0                       # Request fanout histogram
system.membus.snoop_fanout::max_value               0                       # Request fanout histogram
system.membus.snoop_fanout::total             1230319                       # Request fanout histogram
system.membus.reqLayer2.occupancy          2737359500                       # Layer occupancy (ticks)
system.membus.reqLayer2.utilization               0.3                       # Layer utilization (%)
system.membus.respLayer1.occupancy         3375097500                       # Layer occupancy (ticks)
system.membus.respLayer1.utilization              0.3                       # Layer utilization (%)
system.tol2bus.snoop_filter.tot_requests      4088156                       # Total number of requests made to the snoop filter.
system.tol2bus.snoop_filter.hit_single_requests      2042576                       # Number of requests hitting in the snoop filter with a single holder of the requested data.
system.tol2bus.snoop_filter.hit_multi_requests            1                       # Number of requests hitting in the snoop filter with multiple (>1) holders of the requested data.
system.tol2bus.snoop_filter.tot_snoops            766                       # Total number of snoops made to the snoop filter.
system.tol2bus.snoop_filter.hit_single_snoops          766                       # Number of snoops hitting in the snoop filter with a single holder of the requested data.
system.tol2bus.snoop_filter.hit_multi_snoops            0                       # Number of snoops hitting in the snoop filter with multiple (>1) holders of the requested data.
system.tol2bus.trans_dist::ReadResp           1456577                       # Transaction distribution
system.tol2bus.trans_dist::WritebackDirty      1331404                       # Transaction distribution
system.tol2bus.trans_dist::WritebackClean           45                       # Transaction distribution
system.tol2bus.trans_dist::CleanEvict         1318378                       # Transaction distribution
system.tol2bus.trans_dist::ReadExReq           589003                       # Transaction distribution
system.tol2bus.trans_dist::ReadExResp          589003                       # Transaction distribution
system.tol2bus.trans_dist::ReadCleanReq          1001                       # Transaction distribution
system.tol2bus.trans_dist::ReadSharedReq      1455576                       # Transaction distribution
system.tol2bus.pkt_count_system.cpu.icache.mem_side::system.l2.cpu_side         2047                       # Packet count per connected master and slave (bytes)
system.tol2bus.pkt_count_system.cpu.dcache.mem_side::system.l2.cpu_side      6131688                       # Packet count per connected master and slave (bytes)
system.tol2bus.pkt_count::total               6133735                       # Packet count per connected master and slave (bytes)
system.tol2bus.pkt_size_system.cpu.icache.mem_side::system.l2.cpu_side        66944                       # Cumulative packet size per connected master and slave (bytes)
system.tol2bus.pkt_size_system.cpu.dcache.mem_side::system.l2.cpu_side    192078592                       # Cumulative packet size per connected master and slave (bytes)
system.tol2bus.pkt_size::total              192145536                       # Cumulative packet size per connected master and slave (bytes)
system.tol2bus.snoops                          607252                       # Total snoops (count)
system.tol2bus.snoop_fanout::samples          2652832                       # Request fanout histogram
system.tol2bus.snoop_fanout::mean            0.000289                       # Request fanout histogram
system.tol2bus.snoop_fanout::stdev           0.017001                       # Request fanout histogram
system.tol2bus.snoop_fanout::underflows             0      0.00%      0.00% # Request fanout histogram
system.tol2bus.snoop_fanout::0                2652065     99.97%     99.97% # Request fanout histogram
system.tol2bus.snoop_fanout::1                    767      0.03%    100.00% # Request fanout histogram
system.tol2bus.snoop_fanout::2                      0      0.00%    100.00% # Request fanout histogram
system.tol2bus.snoop_fanout::3                      0      0.00%    100.00% # Request fanout histogram
system.tol2bus.snoop_fanout::4                      0      0.00%    100.00% # Request fanout histogram
system.tol2bus.snoop_fanout::overflows              0      0.00%    100.00% # Request fanout histogram
system.tol2bus.snoop_fanout::min_value              0                       # Request fanout histogram
system.tol2bus.snoop_fanout::max_value              1                       # Request fanout histogram
system.tol2bus.snoop_fanout::total            2652832                       # Request fanout histogram
system.tol2bus.reqLayer0.occupancy         3000772000                       # Layer occupancy (ticks)
system.tol2bus.reqLayer0.utilization              0.3                       # Layer utilization (%)
system.tol2bus.respLayer0.occupancy           1501500                       # Layer occupancy (ticks)
system.tol2bus.respLayer0.utilization             0.0                       # Layer utilization (%)
system.tol2bus.respLayer1.occupancy        3066868500                       # Layer occupancy (ticks)
system.tol2bus.respLayer1.utilization             0.3                       # Layer utilization (%)

---------- End Simulation Statistics   ----------
