
---------- Begin Simulation Statistics ----------
sim_seconds                                  1.900523                       # Number of seconds simulated
sim_ticks                                1900523204500                       # Number of ticks simulated
final_tick                               1900523204500                       # Number of ticks from beginning of simulation (restored from checkpoints and never reset)
sim_freq                                 1000000000000                       # Frequency of simulated ticks
host_inst_rate                                  32202                       # Simulator instruction rate (inst/s)
host_op_rate                                    56438                       # Simulator op (including micro ops) rate (op/s)
host_tick_rate                              122401256                       # Simulator tick rate (ticks/s)
host_mem_usage                                 823832                       # Number of bytes of host memory used
host_seconds                                 15526.99                       # Real time elapsed on the host
sim_insts                                   500000000                       # Number of instructions simulated
sim_ops                                     876313791                       # Number of ops (including micro ops) simulated
system.voltage_domain.voltage                       1                       # Voltage in Volts
system.clk_domain.clock                          1000                       # Clock period in ticks
system.mem_ctrls.bytes_read::cpu.inst           43520                       # Number of bytes read from this memory
system.mem_ctrls.bytes_read::cpu.data       639160320                       # Number of bytes read from this memory
system.mem_ctrls.bytes_read::total          639203840                       # Number of bytes read from this memory
system.mem_ctrls.bytes_inst_read::cpu.inst        43520                       # Number of instructions bytes read from this memory
system.mem_ctrls.bytes_inst_read::total         43520                       # Number of instructions bytes read from this memory
system.mem_ctrls.bytes_written::writebacks     89546176                       # Number of bytes written to this memory
system.mem_ctrls.bytes_written::total        89546176                       # Number of bytes written to this memory
system.mem_ctrls.num_reads::cpu.inst              680                       # Number of read requests responded to by this memory
system.mem_ctrls.num_reads::cpu.data          9986880                       # Number of read requests responded to by this memory
system.mem_ctrls.num_reads::total             9987560                       # Number of read requests responded to by this memory
system.mem_ctrls.num_writes::writebacks       1399159                       # Number of write requests responded to by this memory
system.mem_ctrls.num_writes::total            1399159                       # Number of write requests responded to by this memory
system.mem_ctrls.bw_read::cpu.inst              22899                       # Total read bandwidth from this memory (bytes/s)
system.mem_ctrls.bw_read::cpu.data          336307559                       # Total read bandwidth from this memory (bytes/s)
system.mem_ctrls.bw_read::total             336330458                       # Total read bandwidth from this memory (bytes/s)
system.mem_ctrls.bw_inst_read::cpu.inst         22899                       # Instruction read bandwidth from this memory (bytes/s)
system.mem_ctrls.bw_inst_read::total            22899                       # Instruction read bandwidth from this memory (bytes/s)
system.mem_ctrls.bw_write::writebacks        47116592                       # Write bandwidth from this memory (bytes/s)
system.mem_ctrls.bw_write::total             47116592                       # Write bandwidth from this memory (bytes/s)
system.mem_ctrls.bw_total::writebacks        47116592                       # Total bandwidth to/from this memory (bytes/s)
system.mem_ctrls.bw_total::cpu.inst             22899                       # Total bandwidth to/from this memory (bytes/s)
system.mem_ctrls.bw_total::cpu.data         336307559                       # Total bandwidth to/from this memory (bytes/s)
system.mem_ctrls.bw_total::total            383447050                       # Total bandwidth to/from this memory (bytes/s)
system.mem_ctrls.readReqs                     9987560                       # Number of read requests accepted
system.mem_ctrls.writeReqs                    1399159                       # Number of write requests accepted
system.mem_ctrls.readBursts                   9987560                       # Number of DRAM read bursts, including those serviced by the write queue
system.mem_ctrls.writeBursts                  1399159                       # Number of DRAM write bursts, including those merged in the write queue
system.mem_ctrls.bytesReadDRAM              632910848                       # Total number of bytes read from DRAM
system.mem_ctrls.bytesReadWrQ                 6292992                       # Total number of bytes read from write queue
system.mem_ctrls.bytesWritten                88726720                       # Total number of bytes written to DRAM
system.mem_ctrls.bytesReadSys               639203840                       # Total read bytes from the system interface side
system.mem_ctrls.bytesWrittenSys             89546176                       # Total written bytes from the system interface side
system.mem_ctrls.servicedByWrQ                  98328                       # Number of DRAM read bursts serviced by the write queue
system.mem_ctrls.mergedWrBursts                 12772                       # Number of DRAM write bursts merged with an existing one
system.mem_ctrls.neitherReadNorWriteReqs      8585656                       # Number of requests that are neither read nor write
system.mem_ctrls.perBankRdBursts::0            612473                       # Per bank write bursts
system.mem_ctrls.perBankRdBursts::1            601181                       # Per bank write bursts
system.mem_ctrls.perBankRdBursts::2            593537                       # Per bank write bursts
system.mem_ctrls.perBankRdBursts::3            666604                       # Per bank write bursts
system.mem_ctrls.perBankRdBursts::4            598054                       # Per bank write bursts
system.mem_ctrls.perBankRdBursts::5            591814                       # Per bank write bursts
system.mem_ctrls.perBankRdBursts::6            611282                       # Per bank write bursts
system.mem_ctrls.perBankRdBursts::7            594604                       # Per bank write bursts
system.mem_ctrls.perBankRdBursts::8            589750                       # Per bank write bursts
system.mem_ctrls.perBankRdBursts::9            596243                       # Per bank write bursts
system.mem_ctrls.perBankRdBursts::10           618387                       # Per bank write bursts
system.mem_ctrls.perBankRdBursts::11           704742                       # Per bank write bursts
system.mem_ctrls.perBankRdBursts::12           627673                       # Per bank write bursts
system.mem_ctrls.perBankRdBursts::13           625799                       # Per bank write bursts
system.mem_ctrls.perBankRdBursts::14           642200                       # Per bank write bursts
system.mem_ctrls.perBankRdBursts::15           614889                       # Per bank write bursts
system.mem_ctrls.perBankWrBursts::0             83899                       # Per bank write bursts
system.mem_ctrls.perBankWrBursts::1             84183                       # Per bank write bursts
system.mem_ctrls.perBankWrBursts::2             84211                       # Per bank write bursts
system.mem_ctrls.perBankWrBursts::3            117374                       # Per bank write bursts
system.mem_ctrls.perBankWrBursts::4             92742                       # Per bank write bursts
system.mem_ctrls.perBankWrBursts::5             80171                       # Per bank write bursts
system.mem_ctrls.perBankWrBursts::6             97838                       # Per bank write bursts
system.mem_ctrls.perBankWrBursts::7             79524                       # Per bank write bursts
system.mem_ctrls.perBankWrBursts::8             79367                       # Per bank write bursts
system.mem_ctrls.perBankWrBursts::9             77664                       # Per bank write bursts
system.mem_ctrls.perBankWrBursts::10            80034                       # Per bank write bursts
system.mem_ctrls.perBankWrBursts::11            90396                       # Per bank write bursts
system.mem_ctrls.perBankWrBursts::12            84071                       # Per bank write bursts
system.mem_ctrls.perBankWrBursts::13            85253                       # Per bank write bursts
system.mem_ctrls.perBankWrBursts::14            85665                       # Per bank write bursts
system.mem_ctrls.perBankWrBursts::15            83963                       # Per bank write bursts
system.mem_ctrls.numRdRetry                         0                       # Number of times read queue was full causing retry
system.mem_ctrls.numWrRetry                         0                       # Number of times write queue was full causing retry
system.mem_ctrls.totGap                  1900515658500                       # Total gap between requests
system.mem_ctrls.readPktSize::0                     0                       # Read request sizes (log2)
system.mem_ctrls.readPktSize::1                     0                       # Read request sizes (log2)
system.mem_ctrls.readPktSize::2                     0                       # Read request sizes (log2)
system.mem_ctrls.readPktSize::3                     0                       # Read request sizes (log2)
system.mem_ctrls.readPktSize::4                     0                       # Read request sizes (log2)
system.mem_ctrls.readPktSize::5                     0                       # Read request sizes (log2)
system.mem_ctrls.readPktSize::6               9987560                       # Read request sizes (log2)
system.mem_ctrls.writePktSize::0                    0                       # Write request sizes (log2)
system.mem_ctrls.writePktSize::1                    0                       # Write request sizes (log2)
system.mem_ctrls.writePktSize::2                    0                       # Write request sizes (log2)
system.mem_ctrls.writePktSize::3                    0                       # Write request sizes (log2)
system.mem_ctrls.writePktSize::4                    0                       # Write request sizes (log2)
system.mem_ctrls.writePktSize::5                    0                       # Write request sizes (log2)
system.mem_ctrls.writePktSize::6              1399159                       # Write request sizes (log2)
system.mem_ctrls.rdQLenPdf::0                 9889232                       # What read queue length does an incoming req see
system.mem_ctrls.rdQLenPdf::1                       0                       # What read queue length does an incoming req see
system.mem_ctrls.rdQLenPdf::2                       0                       # What read queue length does an incoming req see
system.mem_ctrls.rdQLenPdf::3                       0                       # What read queue length does an incoming req see
system.mem_ctrls.rdQLenPdf::4                       0                       # What read queue length does an incoming req see
system.mem_ctrls.rdQLenPdf::5                       0                       # What read queue length does an incoming req see
system.mem_ctrls.rdQLenPdf::6                       0                       # What read queue length does an incoming req see
system.mem_ctrls.rdQLenPdf::7                       0                       # What read queue length does an incoming req see
system.mem_ctrls.rdQLenPdf::8                       0                       # What read queue length does an incoming req see
system.mem_ctrls.rdQLenPdf::9                       0                       # What read queue length does an incoming req see
system.mem_ctrls.rdQLenPdf::10                      0                       # What read queue length does an incoming req see
system.mem_ctrls.rdQLenPdf::11                      0                       # What read queue length does an incoming req see
system.mem_ctrls.rdQLenPdf::12                      0                       # What read queue length does an incoming req see
system.mem_ctrls.rdQLenPdf::13                      0                       # What read queue length does an incoming req see
system.mem_ctrls.rdQLenPdf::14                      0                       # What read queue length does an incoming req see
system.mem_ctrls.rdQLenPdf::15                      0                       # What read queue length does an incoming req see
system.mem_ctrls.rdQLenPdf::16                      0                       # What read queue length does an incoming req see
system.mem_ctrls.rdQLenPdf::17                      0                       # What read queue length does an incoming req see
system.mem_ctrls.rdQLenPdf::18                      0                       # What read queue length does an incoming req see
system.mem_ctrls.rdQLenPdf::19                      0                       # What read queue length does an incoming req see
system.mem_ctrls.rdQLenPdf::20                      0                       # What read queue length does an incoming req see
system.mem_ctrls.rdQLenPdf::21                      0                       # What read queue length does an incoming req see
system.mem_ctrls.rdQLenPdf::22                      0                       # What read queue length does an incoming req see
system.mem_ctrls.rdQLenPdf::23                      0                       # What read queue length does an incoming req see
system.mem_ctrls.rdQLenPdf::24                      0                       # What read queue length does an incoming req see
system.mem_ctrls.rdQLenPdf::25                      0                       # What read queue length does an incoming req see
system.mem_ctrls.rdQLenPdf::26                      0                       # What read queue length does an incoming req see
system.mem_ctrls.rdQLenPdf::27                      0                       # What read queue length does an incoming req see
system.mem_ctrls.rdQLenPdf::28                      0                       # What read queue length does an incoming req see
system.mem_ctrls.rdQLenPdf::29                      0                       # What read queue length does an incoming req see
system.mem_ctrls.rdQLenPdf::30                      0                       # What read queue length does an incoming req see
system.mem_ctrls.rdQLenPdf::31                      0                       # What read queue length does an incoming req see
system.mem_ctrls.wrQLenPdf::0                       1                       # What write queue length does an incoming req see
system.mem_ctrls.wrQLenPdf::1                       1                       # What write queue length does an incoming req see
system.mem_ctrls.wrQLenPdf::2                       1                       # What write queue length does an incoming req see
system.mem_ctrls.wrQLenPdf::3                       1                       # What write queue length does an incoming req see
system.mem_ctrls.wrQLenPdf::4                       1                       # What write queue length does an incoming req see
system.mem_ctrls.wrQLenPdf::5                       1                       # What write queue length does an incoming req see
system.mem_ctrls.wrQLenPdf::6                       1                       # What write queue length does an incoming req see
system.mem_ctrls.wrQLenPdf::7                       1                       # What write queue length does an incoming req see
system.mem_ctrls.wrQLenPdf::8                       1                       # What write queue length does an incoming req see
system.mem_ctrls.wrQLenPdf::9                       1                       # What write queue length does an incoming req see
system.mem_ctrls.wrQLenPdf::10                      1                       # What write queue length does an incoming req see
system.mem_ctrls.wrQLenPdf::11                      1                       # What write queue length does an incoming req see
system.mem_ctrls.wrQLenPdf::12                      1                       # What write queue length does an incoming req see
system.mem_ctrls.wrQLenPdf::13                      1                       # What write queue length does an incoming req see
system.mem_ctrls.wrQLenPdf::14                      1                       # What write queue length does an incoming req see
system.mem_ctrls.wrQLenPdf::15                  25862                       # What write queue length does an incoming req see
system.mem_ctrls.wrQLenPdf::16                  27406                       # What write queue length does an incoming req see
system.mem_ctrls.wrQLenPdf::17                  83409                       # What write queue length does an incoming req see
system.mem_ctrls.wrQLenPdf::18                  83367                       # What write queue length does an incoming req see
system.mem_ctrls.wrQLenPdf::19                  83314                       # What write queue length does an incoming req see
system.mem_ctrls.wrQLenPdf::20                  83310                       # What write queue length does an incoming req see
system.mem_ctrls.wrQLenPdf::21                  83310                       # What write queue length does an incoming req see
system.mem_ctrls.wrQLenPdf::22                  83310                       # What write queue length does an incoming req see
system.mem_ctrls.wrQLenPdf::23                  83310                       # What write queue length does an incoming req see
system.mem_ctrls.wrQLenPdf::24                  83308                       # What write queue length does an incoming req see
system.mem_ctrls.wrQLenPdf::25                  83310                       # What write queue length does an incoming req see
system.mem_ctrls.wrQLenPdf::26                  83309                       # What write queue length does an incoming req see
system.mem_ctrls.wrQLenPdf::27                  83308                       # What write queue length does an incoming req see
system.mem_ctrls.wrQLenPdf::28                  83308                       # What write queue length does an incoming req see
system.mem_ctrls.wrQLenPdf::29                  83308                       # What write queue length does an incoming req see
system.mem_ctrls.wrQLenPdf::30                  83308                       # What write queue length does an incoming req see
system.mem_ctrls.wrQLenPdf::31                  83308                       # What write queue length does an incoming req see
system.mem_ctrls.wrQLenPdf::32                  83307                       # What write queue length does an incoming req see
system.mem_ctrls.wrQLenPdf::33                      0                       # What write queue length does an incoming req see
system.mem_ctrls.wrQLenPdf::34                      0                       # What write queue length does an incoming req see
system.mem_ctrls.wrQLenPdf::35                      0                       # What write queue length does an incoming req see
system.mem_ctrls.wrQLenPdf::36                      0                       # What write queue length does an incoming req see
system.mem_ctrls.wrQLenPdf::37                      0                       # What write queue length does an incoming req see
system.mem_ctrls.wrQLenPdf::38                      0                       # What write queue length does an incoming req see
system.mem_ctrls.wrQLenPdf::39                      0                       # What write queue length does an incoming req see
system.mem_ctrls.wrQLenPdf::40                      0                       # What write queue length does an incoming req see
system.mem_ctrls.wrQLenPdf::41                      0                       # What write queue length does an incoming req see
system.mem_ctrls.wrQLenPdf::42                      0                       # What write queue length does an incoming req see
system.mem_ctrls.wrQLenPdf::43                      0                       # What write queue length does an incoming req see
system.mem_ctrls.wrQLenPdf::44                      0                       # What write queue length does an incoming req see
system.mem_ctrls.wrQLenPdf::45                      0                       # What write queue length does an incoming req see
system.mem_ctrls.wrQLenPdf::46                      0                       # What write queue length does an incoming req see
system.mem_ctrls.wrQLenPdf::47                      0                       # What write queue length does an incoming req see
system.mem_ctrls.wrQLenPdf::48                      0                       # What write queue length does an incoming req see
system.mem_ctrls.wrQLenPdf::49                      0                       # What write queue length does an incoming req see
system.mem_ctrls.wrQLenPdf::50                      0                       # What write queue length does an incoming req see
system.mem_ctrls.wrQLenPdf::51                      0                       # What write queue length does an incoming req see
system.mem_ctrls.wrQLenPdf::52                      0                       # What write queue length does an incoming req see
system.mem_ctrls.wrQLenPdf::53                      0                       # What write queue length does an incoming req see
system.mem_ctrls.wrQLenPdf::54                      0                       # What write queue length does an incoming req see
system.mem_ctrls.wrQLenPdf::55                      0                       # What write queue length does an incoming req see
system.mem_ctrls.wrQLenPdf::56                      0                       # What write queue length does an incoming req see
system.mem_ctrls.wrQLenPdf::57                      0                       # What write queue length does an incoming req see
system.mem_ctrls.wrQLenPdf::58                      0                       # What write queue length does an incoming req see
system.mem_ctrls.wrQLenPdf::59                      0                       # What write queue length does an incoming req see
system.mem_ctrls.wrQLenPdf::60                      0                       # What write queue length does an incoming req see
system.mem_ctrls.wrQLenPdf::61                      0                       # What write queue length does an incoming req see
system.mem_ctrls.wrQLenPdf::62                      0                       # What write queue length does an incoming req see
system.mem_ctrls.wrQLenPdf::63                      0                       # What write queue length does an incoming req see
system.mem_ctrls.bytesPerActivate::samples      8717393                       # Bytes accessed per row activation
system.mem_ctrls.bytesPerActivate::mean     82.781351                       # Bytes accessed per row activation
system.mem_ctrls.bytesPerActivate::gmean    71.537502                       # Bytes accessed per row activation
system.mem_ctrls.bytesPerActivate::stdev    96.654727                       # Bytes accessed per row activation
system.mem_ctrls.bytesPerActivate::0-127      7798212     89.46%     89.46% # Bytes accessed per row activation
system.mem_ctrls.bytesPerActivate::128-255       717458      8.23%     97.69% # Bytes accessed per row activation
system.mem_ctrls.bytesPerActivate::256-383        69299      0.79%     98.48% # Bytes accessed per row activation
system.mem_ctrls.bytesPerActivate::384-511        24801      0.28%     98.77% # Bytes accessed per row activation
system.mem_ctrls.bytesPerActivate::512-639        15283      0.18%     98.94% # Bytes accessed per row activation
system.mem_ctrls.bytesPerActivate::640-767        15527      0.18%     99.12% # Bytes accessed per row activation
system.mem_ctrls.bytesPerActivate::768-895        12522      0.14%     99.26% # Bytes accessed per row activation
system.mem_ctrls.bytesPerActivate::896-1023         7577      0.09%     99.35% # Bytes accessed per row activation
system.mem_ctrls.bytesPerActivate::1024-1151        56714      0.65%    100.00% # Bytes accessed per row activation
system.mem_ctrls.bytesPerActivate::total      8717393                       # Bytes accessed per row activation
system.mem_ctrls.rdPerTurnAround::samples        83307                       # Reads before turning the bus around for writes
system.mem_ctrls.rdPerTurnAround::mean     118.706795                       # Reads before turning the bus around for writes
system.mem_ctrls.rdPerTurnAround::gmean     58.501156                       # Reads before turning the bus around for writes
system.mem_ctrls.rdPerTurnAround::stdev    173.011554                       # Reads before turning the bus around for writes
system.mem_ctrls.rdPerTurnAround::0-127         64267     77.14%     77.14% # Reads before turning the bus around for writes
system.mem_ctrls.rdPerTurnAround::128-255         5185      6.22%     83.37% # Reads before turning the bus around for writes
system.mem_ctrls.rdPerTurnAround::256-383         5640      6.77%     90.14% # Reads before turning the bus around for writes
system.mem_ctrls.rdPerTurnAround::384-511         4166      5.00%     95.14% # Reads before turning the bus around for writes
system.mem_ctrls.rdPerTurnAround::512-639         2304      2.77%     97.91% # Reads before turning the bus around for writes
system.mem_ctrls.rdPerTurnAround::640-767          973      1.17%     99.07% # Reads before turning the bus around for writes
system.mem_ctrls.rdPerTurnAround::768-895          397      0.48%     99.55% # Reads before turning the bus around for writes
system.mem_ctrls.rdPerTurnAround::896-1023          206      0.25%     99.80% # Reads before turning the bus around for writes
system.mem_ctrls.rdPerTurnAround::1024-1151           79      0.09%     99.89% # Reads before turning the bus around for writes
system.mem_ctrls.rdPerTurnAround::1152-1279           40      0.05%     99.94% # Reads before turning the bus around for writes
system.mem_ctrls.rdPerTurnAround::1280-1407           21      0.03%     99.97% # Reads before turning the bus around for writes
system.mem_ctrls.rdPerTurnAround::1408-1535           14      0.02%     99.98% # Reads before turning the bus around for writes
system.mem_ctrls.rdPerTurnAround::1536-1663            9      0.01%     99.99% # Reads before turning the bus around for writes
system.mem_ctrls.rdPerTurnAround::1664-1791            3      0.00%    100.00% # Reads before turning the bus around for writes
system.mem_ctrls.rdPerTurnAround::1792-1919            1      0.00%    100.00% # Reads before turning the bus around for writes
system.mem_ctrls.rdPerTurnAround::1920-2047            1      0.00%    100.00% # Reads before turning the bus around for writes
system.mem_ctrls.rdPerTurnAround::2304-2431            1      0.00%    100.00% # Reads before turning the bus around for writes
system.mem_ctrls.rdPerTurnAround::total         83307                       # Reads before turning the bus around for writes
system.mem_ctrls.wrPerTurnAround::samples        83307                       # Writes before turning the bus around for reads
system.mem_ctrls.wrPerTurnAround::mean      16.641519                       # Writes before turning the bus around for reads
system.mem_ctrls.wrPerTurnAround::gmean     16.616409                       # Writes before turning the bus around for reads
system.mem_ctrls.wrPerTurnAround::stdev      0.926981                       # Writes before turning the bus around for reads
system.mem_ctrls.wrPerTurnAround::16            55903     67.10%     67.10% # Writes before turning the bus around for reads
system.mem_ctrls.wrPerTurnAround::17             1539      1.85%     68.95% # Writes before turning the bus around for reads
system.mem_ctrls.wrPerTurnAround::18            25691     30.84%     99.79% # Writes before turning the bus around for reads
system.mem_ctrls.wrPerTurnAround::19              174      0.21%    100.00% # Writes before turning the bus around for reads
system.mem_ctrls.wrPerTurnAround::total         83307                       # Writes before turning the bus around for reads
system.mem_ctrls.totQLat                 227034886250                       # Total ticks spent queuing
system.mem_ctrls.totMemAccLat            412457986250                       # Total ticks spent from burst creation until serviced by the DRAM
system.mem_ctrls.totBusLat                49446160000                       # Total ticks spent in databus transfers
system.mem_ctrls.avgQLat                     22957.79                       # Average queueing delay per DRAM burst
system.mem_ctrls.avgBusLat                    5000.00                       # Average bus latency per DRAM burst
system.mem_ctrls.avgMemAccLat                41707.79                       # Average memory access latency per DRAM burst
system.mem_ctrls.avgRdBW                       333.02                       # Average DRAM read bandwidth in MiByte/s
system.mem_ctrls.avgWrBW                        46.69                       # Average achieved write bandwidth in MiByte/s
system.mem_ctrls.avgRdBWSys                    336.33                       # Average system read bandwidth in MiByte/s
system.mem_ctrls.avgWrBWSys                     47.12                       # Average system write bandwidth in MiByte/s
system.mem_ctrls.peakBW                      12800.00                       # Theoretical peak bandwidth in MiByte/s
system.mem_ctrls.busUtil                         2.97                       # Data bus utilization in percentage
system.mem_ctrls.busUtilRead                     2.60                       # Data bus utilization in percentage for reads
system.mem_ctrls.busUtilWrite                    0.36                       # Data bus utilization in percentage for writes
system.mem_ctrls.avgRdQLen                       1.00                       # Average read queue length when enqueuing
system.mem_ctrls.avgWrQLen                      25.09                       # Average write queue length when enqueuing
system.mem_ctrls.readRowHits                  1825323                       # Number of row buffer hits during reads
system.mem_ctrls.writeRowHits                  732871                       # Number of row buffer hits during writes
system.mem_ctrls.readRowHitRate                 18.46                       # Row buffer hit rate for reads
system.mem_ctrls.writeRowHitRate                52.86                       # Row buffer hit rate for writes
system.mem_ctrls.avgGap                     166906.35                       # Average gap between requests
system.mem_ctrls.pageHitRate                    22.69                       # Row buffer hit rate, read and write combined
system.mem_ctrls_0.actEnergy              32468083200                       # Energy for activate commands per rank (pJ)
system.mem_ctrls_0.preEnergy              17715720000                       # Energy for precharge commands per rank (pJ)
system.mem_ctrls_0.readEnergy             37982482200                       # Energy for read commands per rank (pJ)
system.mem_ctrls_0.writeEnergy             4665224160                       # Energy for write commands per rank (pJ)
system.mem_ctrls_0.refreshEnergy         124132884720                       # Energy for refresh commands per rank (pJ)
system.mem_ctrls_0.actBackEnergy         1072886114655                       # Energy for active background per rank (pJ)
system.mem_ctrls_0.preBackEnergy         199185427500                       # Energy for precharge background per rank (pJ)
system.mem_ctrls_0.totalEnergy           1489035936435                       # Total energy per rank (pJ)
system.mem_ctrls_0.averagePower            783.487598                       # Core power per rank (mW)
system.mem_ctrls_0.memoryStateTime::IDLE 325057669500                       # Time in different power states
system.mem_ctrls_0.memoryStateTime::REF   63462620000                       # Time in different power states
system.mem_ctrls_0.memoryStateTime::PRE_PDN            0                       # Time in different power states
system.mem_ctrls_0.memoryStateTime::ACT  1512002388000                       # Time in different power states
system.mem_ctrls_0.memoryStateTime::ACT_PDN            0                       # Time in different power states
system.mem_ctrls_1.actEnergy              33435407880                       # Energy for activate commands per rank (pJ)
system.mem_ctrls_1.preEnergy              18243526125                       # Energy for precharge commands per rank (pJ)
system.mem_ctrls_1.readEnergy             39153527400                       # Energy for read commands per rank (pJ)
system.mem_ctrls_1.writeEnergy             4318356240                       # Energy for write commands per rank (pJ)
system.mem_ctrls_1.refreshEnergy         124132884720                       # Energy for refresh commands per rank (pJ)
system.mem_ctrls_1.actBackEnergy         1069808078745                       # Energy for active background per rank (pJ)
system.mem_ctrls_1.preBackEnergy         201885450750                       # Energy for precharge background per rank (pJ)
system.mem_ctrls_1.totalEnergy           1490977231860                       # Total energy per rank (pJ)
system.mem_ctrls_1.averagePower            784.509057                       # Core power per rank (mW)
system.mem_ctrls_1.memoryStateTime::IDLE 329316410750                       # Time in different power states
system.mem_ctrls_1.memoryStateTime::REF   63462620000                       # Time in different power states
system.mem_ctrls_1.memoryStateTime::PRE_PDN            0                       # Time in different power states
system.mem_ctrls_1.memoryStateTime::ACT  1507743633000                       # Time in different power states
system.mem_ctrls_1.memoryStateTime::ACT_PDN            0                       # Time in different power states
system.cpu_voltage_domain.voltage                   1                       # Voltage in Volts
system.cpu_clk_domain.clock                       500                       # Clock period in ticks
system.cpu.apic_clk_domain.clock                 8000                       # Clock period in ticks
system.cpu.workload.num_syscalls                  168                       # Number of system calls
system.cpu.numCycles                       3801046409                       # number of cpu cycles simulated
system.cpu.numWorkItemsStarted                      0                       # number of work items this cpu started
system.cpu.numWorkItemsCompleted                    0                       # number of work items this cpu completed
system.cpu.committedInsts                   500000000                       # Number of instructions committed
system.cpu.committedOps                     876313791                       # Number of ops (including micro ops) committed
system.cpu.num_int_alu_accesses             872966650                       # Number of integer alu accesses
system.cpu.num_fp_alu_accesses                2882295                       # Number of float alu accesses
system.cpu.num_func_calls                    11025254                       # number of times a function call or return occured
system.cpu.num_conditional_control_insts     75981001                       # number of instructions that are conditional controls
system.cpu.num_int_insts                    872966650                       # number of integer instructions
system.cpu.num_fp_insts                       2882295                       # number of float instructions
system.cpu.num_int_register_reads          1835046799                       # number of times the integer registers were read
system.cpu.num_int_register_writes          703076403                       # number of times the integer registers were written
system.cpu.num_fp_register_reads              4386181                       # number of times the floating registers were read
system.cpu.num_fp_register_writes             2464451                       # number of times the floating registers were written
system.cpu.num_cc_register_reads            441654653                       # number of times the CC registers were read
system.cpu.num_cc_register_writes           253505530                       # number of times the CC registers were written
system.cpu.num_mem_refs                     293763540                       # number of memory refs
system.cpu.num_load_insts                   221284996                       # Number of load instructions
system.cpu.num_store_insts                   72478544                       # Number of store instructions
system.cpu.num_idle_cycles                          0                       # Number of idle cycles
system.cpu.num_busy_cycles                 3801046409                       # Number of busy cycles
system.cpu.not_idle_fraction                        1                       # Percentage of non-idle cycles
system.cpu.idle_fraction                            0                       # Percentage of idle cycles
system.cpu.Branches                          97900991                       # Number of branches fetched
system.cpu.op_class::No_OpClass                939429      0.11%      0.11% # Class of executed instruction
system.cpu.op_class::IntAlu                 578420275     66.01%     66.11% # Class of executed instruction
system.cpu.op_class::IntMult                   907073      0.10%     66.22% # Class of executed instruction
system.cpu.op_class::IntDiv                        42      0.00%     66.22% # Class of executed instruction
system.cpu.op_class::FloatAdd                 2283432      0.26%     66.48% # Class of executed instruction
system.cpu.op_class::FloatCmp                       0      0.00%     66.48% # Class of executed instruction
system.cpu.op_class::FloatCvt                       0      0.00%     66.48% # Class of executed instruction
system.cpu.op_class::FloatMult                      0      0.00%     66.48% # Class of executed instruction
system.cpu.op_class::FloatDiv                       0      0.00%     66.48% # Class of executed instruction
system.cpu.op_class::FloatSqrt                      0      0.00%     66.48% # Class of executed instruction
system.cpu.op_class::SimdAdd                        0      0.00%     66.48% # Class of executed instruction
system.cpu.op_class::SimdAddAcc                     0      0.00%     66.48% # Class of executed instruction
system.cpu.op_class::SimdAlu                        0      0.00%     66.48% # Class of executed instruction
system.cpu.op_class::SimdCmp                        0      0.00%     66.48% # Class of executed instruction
system.cpu.op_class::SimdCvt                        0      0.00%     66.48% # Class of executed instruction
system.cpu.op_class::SimdMisc                       0      0.00%     66.48% # Class of executed instruction
system.cpu.op_class::SimdMult                       0      0.00%     66.48% # Class of executed instruction
system.cpu.op_class::SimdMultAcc                    0      0.00%     66.48% # Class of executed instruction
system.cpu.op_class::SimdShift                      0      0.00%     66.48% # Class of executed instruction
system.cpu.op_class::SimdShiftAcc                   0      0.00%     66.48% # Class of executed instruction
system.cpu.op_class::SimdSqrt                       0      0.00%     66.48% # Class of executed instruction
system.cpu.op_class::SimdFloatAdd                   0      0.00%     66.48% # Class of executed instruction
system.cpu.op_class::SimdFloatAlu                   0      0.00%     66.48% # Class of executed instruction
system.cpu.op_class::SimdFloatCmp                   0      0.00%     66.48% # Class of executed instruction
system.cpu.op_class::SimdFloatCvt                   0      0.00%     66.48% # Class of executed instruction
system.cpu.op_class::SimdFloatDiv                   0      0.00%     66.48% # Class of executed instruction
system.cpu.op_class::SimdFloatMisc                  0      0.00%     66.48% # Class of executed instruction
system.cpu.op_class::SimdFloatMult                  0      0.00%     66.48% # Class of executed instruction
system.cpu.op_class::SimdFloatMultAcc               0      0.00%     66.48% # Class of executed instruction
system.cpu.op_class::SimdFloatSqrt                  0      0.00%     66.48% # Class of executed instruction
system.cpu.op_class::MemRead                221284996     25.25%     91.73% # Class of executed instruction
system.cpu.op_class::MemWrite                72478544      8.27%    100.00% # Class of executed instruction
system.cpu.op_class::IprAccess                      0      0.00%    100.00% # Class of executed instruction
system.cpu.op_class::InstPrefetch                   0      0.00%    100.00% # Class of executed instruction
system.cpu.op_class::total                  876313791                       # Class of executed instruction
system.cpu.dcache.tags.replacements          10214979                       # number of replacements
system.cpu.dcache.tags.tagsinuse          2047.409522                       # Cycle average of tags in use
system.cpu.dcache.tags.total_refs           283566706                       # Total number of references to valid blocks.
system.cpu.dcache.tags.sampled_refs          10217027                       # Sample count of references to valid blocks.
system.cpu.dcache.tags.avg_refs             27.754327                       # Average number of references to valid blocks.
system.cpu.dcache.tags.warmup_cycle        1262801500                       # Cycle when the warmup percentage was hit.
system.cpu.dcache.tags.occ_blocks::cpu.data  2047.409522                       # Average occupied blocks per requestor
system.cpu.dcache.tags.occ_percent::cpu.data     0.999712                       # Average percentage of cache occupancy
system.cpu.dcache.tags.occ_percent::total     0.999712                       # Average percentage of cache occupancy
system.cpu.dcache.tags.occ_task_id_blocks::1024         2048                       # Occupied blocks per task id
system.cpu.dcache.tags.age_task_id_blocks_1024::0            1                       # Occupied blocks per task id
system.cpu.dcache.tags.age_task_id_blocks_1024::1          543                       # Occupied blocks per task id
system.cpu.dcache.tags.age_task_id_blocks_1024::2         1253                       # Occupied blocks per task id
system.cpu.dcache.tags.age_task_id_blocks_1024::3          247                       # Occupied blocks per task id
system.cpu.dcache.tags.age_task_id_blocks_1024::4            4                       # Occupied blocks per task id
system.cpu.dcache.tags.occ_task_id_percent::1024            1                       # Percentage of cache occupancy per task id
system.cpu.dcache.tags.tag_accesses         597784493                       # Number of tag accesses
system.cpu.dcache.tags.data_accesses        597784493                       # Number of data accesses
system.cpu.dcache.ReadReq_hits::cpu.data    211420403                       # number of ReadReq hits
system.cpu.dcache.ReadReq_hits::total       211420403                       # number of ReadReq hits
system.cpu.dcache.WriteReq_hits::cpu.data     72146303                       # number of WriteReq hits
system.cpu.dcache.WriteReq_hits::total       72146303                       # number of WriteReq hits
system.cpu.dcache.demand_hits::cpu.data     283566706                       # number of demand (read+write) hits
system.cpu.dcache.demand_hits::total        283566706                       # number of demand (read+write) hits
system.cpu.dcache.overall_hits::cpu.data    283566706                       # number of overall hits
system.cpu.dcache.overall_hits::total       283566706                       # number of overall hits
system.cpu.dcache.ReadReq_misses::cpu.data      9878722                       # number of ReadReq misses
system.cpu.dcache.ReadReq_misses::total       9878722                       # number of ReadReq misses
system.cpu.dcache.WriteReq_misses::cpu.data       338305                       # number of WriteReq misses
system.cpu.dcache.WriteReq_misses::total       338305                       # number of WriteReq misses
system.cpu.dcache.demand_misses::cpu.data     10217027                       # number of demand (read+write) misses
system.cpu.dcache.demand_misses::total       10217027                       # number of demand (read+write) misses
system.cpu.dcache.overall_misses::cpu.data     10217027                       # number of overall misses
system.cpu.dcache.overall_misses::total      10217027                       # number of overall misses
system.cpu.dcache.ReadReq_miss_latency::cpu.data 917297099000                       # number of ReadReq miss cycles
system.cpu.dcache.ReadReq_miss_latency::total 917297099000                       # number of ReadReq miss cycles
system.cpu.dcache.WriteReq_miss_latency::cpu.data  22297599500                       # number of WriteReq miss cycles
system.cpu.dcache.WriteReq_miss_latency::total  22297599500                       # number of WriteReq miss cycles
system.cpu.dcache.demand_miss_latency::cpu.data 939594698500                       # number of demand (read+write) miss cycles
system.cpu.dcache.demand_miss_latency::total 939594698500                       # number of demand (read+write) miss cycles
system.cpu.dcache.overall_miss_latency::cpu.data 939594698500                       # number of overall miss cycles
system.cpu.dcache.overall_miss_latency::total 939594698500                       # number of overall miss cycles
system.cpu.dcache.ReadReq_accesses::cpu.data    221299125                       # number of ReadReq accesses(hits+misses)
system.cpu.dcache.ReadReq_accesses::total    221299125                       # number of ReadReq accesses(hits+misses)
system.cpu.dcache.WriteReq_accesses::cpu.data     72484608                       # number of WriteReq accesses(hits+misses)
system.cpu.dcache.WriteReq_accesses::total     72484608                       # number of WriteReq accesses(hits+misses)
system.cpu.dcache.demand_accesses::cpu.data    293783733                       # number of demand (read+write) accesses
system.cpu.dcache.demand_accesses::total    293783733                       # number of demand (read+write) accesses
system.cpu.dcache.overall_accesses::cpu.data    293783733                       # number of overall (read+write) accesses
system.cpu.dcache.overall_accesses::total    293783733                       # number of overall (read+write) accesses
system.cpu.dcache.ReadReq_miss_rate::cpu.data     0.044640                       # miss rate for ReadReq accesses
system.cpu.dcache.ReadReq_miss_rate::total     0.044640                       # miss rate for ReadReq accesses
system.cpu.dcache.WriteReq_miss_rate::cpu.data     0.004667                       # miss rate for WriteReq accesses
system.cpu.dcache.WriteReq_miss_rate::total     0.004667                       # miss rate for WriteReq accesses
system.cpu.dcache.demand_miss_rate::cpu.data     0.034777                       # miss rate for demand accesses
system.cpu.dcache.demand_miss_rate::total     0.034777                       # miss rate for demand accesses
system.cpu.dcache.overall_miss_rate::cpu.data     0.034777                       # miss rate for overall accesses
system.cpu.dcache.overall_miss_rate::total     0.034777                       # miss rate for overall accesses
system.cpu.dcache.ReadReq_avg_miss_latency::cpu.data 92855.847042                       # average ReadReq miss latency
system.cpu.dcache.ReadReq_avg_miss_latency::total 92855.847042                       # average ReadReq miss latency
system.cpu.dcache.WriteReq_avg_miss_latency::cpu.data 65909.754511                       # average WriteReq miss latency
system.cpu.dcache.WriteReq_avg_miss_latency::total 65909.754511                       # average WriteReq miss latency
system.cpu.dcache.demand_avg_miss_latency::cpu.data 91963.611186                       # average overall miss latency
system.cpu.dcache.demand_avg_miss_latency::total 91963.611186                       # average overall miss latency
system.cpu.dcache.overall_avg_miss_latency::cpu.data 91963.611186                       # average overall miss latency
system.cpu.dcache.overall_avg_miss_latency::total 91963.611186                       # average overall miss latency
system.cpu.dcache.blocked_cycles::no_mshrs            0                       # number of cycles access was blocked
system.cpu.dcache.blocked_cycles::no_targets            0                       # number of cycles access was blocked
system.cpu.dcache.blocked::no_mshrs                 0                       # number of cycles access was blocked
system.cpu.dcache.blocked::no_targets               0                       # number of cycles access was blocked
system.cpu.dcache.avg_blocked_cycles::no_mshrs          nan                       # average number of cycles each access was blocked
system.cpu.dcache.avg_blocked_cycles::no_targets          nan                       # average number of cycles each access was blocked
system.cpu.dcache.fast_writes                       0                       # number of fast writes performed
system.cpu.dcache.cache_copies                      0                       # number of cache copies performed
system.cpu.dcache.writebacks::writebacks      1629345                       # number of writebacks
system.cpu.dcache.writebacks::total           1629345                       # number of writebacks
system.cpu.dcache.ReadReq_mshr_misses::cpu.data      9878722                       # number of ReadReq MSHR misses
system.cpu.dcache.ReadReq_mshr_misses::total      9878722                       # number of ReadReq MSHR misses
system.cpu.dcache.WriteReq_mshr_misses::cpu.data       338305                       # number of WriteReq MSHR misses
system.cpu.dcache.WriteReq_mshr_misses::total       338305                       # number of WriteReq MSHR misses
system.cpu.dcache.demand_mshr_misses::cpu.data     10217027                       # number of demand (read+write) MSHR misses
system.cpu.dcache.demand_mshr_misses::total     10217027                       # number of demand (read+write) MSHR misses
system.cpu.dcache.overall_mshr_misses::cpu.data     10217027                       # number of overall MSHR misses
system.cpu.dcache.overall_mshr_misses::total     10217027                       # number of overall MSHR misses
system.cpu.dcache.ReadReq_mshr_miss_latency::cpu.data 907418377000                       # number of ReadReq MSHR miss cycles
system.cpu.dcache.ReadReq_mshr_miss_latency::total 907418377000                       # number of ReadReq MSHR miss cycles
system.cpu.dcache.WriteReq_mshr_miss_latency::cpu.data  21959294500                       # number of WriteReq MSHR miss cycles
system.cpu.dcache.WriteReq_mshr_miss_latency::total  21959294500                       # number of WriteReq MSHR miss cycles
system.cpu.dcache.demand_mshr_miss_latency::cpu.data 929377671500                       # number of demand (read+write) MSHR miss cycles
system.cpu.dcache.demand_mshr_miss_latency::total 929377671500                       # number of demand (read+write) MSHR miss cycles
system.cpu.dcache.overall_mshr_miss_latency::cpu.data 929377671500                       # number of overall MSHR miss cycles
system.cpu.dcache.overall_mshr_miss_latency::total 929377671500                       # number of overall MSHR miss cycles
system.cpu.dcache.ReadReq_mshr_miss_rate::cpu.data     0.044640                       # mshr miss rate for ReadReq accesses
system.cpu.dcache.ReadReq_mshr_miss_rate::total     0.044640                       # mshr miss rate for ReadReq accesses
system.cpu.dcache.WriteReq_mshr_miss_rate::cpu.data     0.004667                       # mshr miss rate for WriteReq accesses
system.cpu.dcache.WriteReq_mshr_miss_rate::total     0.004667                       # mshr miss rate for WriteReq accesses
system.cpu.dcache.demand_mshr_miss_rate::cpu.data     0.034777                       # mshr miss rate for demand accesses
system.cpu.dcache.demand_mshr_miss_rate::total     0.034777                       # mshr miss rate for demand accesses
system.cpu.dcache.overall_mshr_miss_rate::cpu.data     0.034777                       # mshr miss rate for overall accesses
system.cpu.dcache.overall_mshr_miss_rate::total     0.034777                       # mshr miss rate for overall accesses
system.cpu.dcache.ReadReq_avg_mshr_miss_latency::cpu.data 91855.847042                       # average ReadReq mshr miss latency
system.cpu.dcache.ReadReq_avg_mshr_miss_latency::total 91855.847042                       # average ReadReq mshr miss latency
system.cpu.dcache.WriteReq_avg_mshr_miss_latency::cpu.data 64909.754511                       # average WriteReq mshr miss latency
system.cpu.dcache.WriteReq_avg_mshr_miss_latency::total 64909.754511                       # average WriteReq mshr miss latency
system.cpu.dcache.demand_avg_mshr_miss_latency::cpu.data 90963.611186                       # average overall mshr miss latency
system.cpu.dcache.demand_avg_mshr_miss_latency::total 90963.611186                       # average overall mshr miss latency
system.cpu.dcache.overall_avg_mshr_miss_latency::cpu.data 90963.611186                       # average overall mshr miss latency
system.cpu.dcache.overall_avg_mshr_miss_latency::total 90963.611186                       # average overall mshr miss latency
system.cpu.dcache.no_allocate_misses                0                       # Number of misses that were no-allocate
system.cpu.dtb_walker_cache.tags.replacements            0                       # number of replacements
system.cpu.dtb_walker_cache.tags.tagsinuse            0                       # Cycle average of tags in use
system.cpu.dtb_walker_cache.tags.total_refs            0                       # Total number of references to valid blocks.
system.cpu.dtb_walker_cache.tags.sampled_refs            0                       # Sample count of references to valid blocks.
system.cpu.dtb_walker_cache.tags.avg_refs          nan                       # Average number of references to valid blocks.
system.cpu.dtb_walker_cache.tags.warmup_cycle            0                       # Cycle when the warmup percentage was hit.
system.cpu.dtb_walker_cache.tags.tag_accesses            0                       # Number of tag accesses
system.cpu.dtb_walker_cache.tags.data_accesses            0                       # Number of data accesses
system.cpu.dtb_walker_cache.blocked_cycles::no_mshrs            0                       # number of cycles access was blocked
system.cpu.dtb_walker_cache.blocked_cycles::no_targets            0                       # number of cycles access was blocked
system.cpu.dtb_walker_cache.blocked::no_mshrs            0                       # number of cycles access was blocked
system.cpu.dtb_walker_cache.blocked::no_targets            0                       # number of cycles access was blocked
system.cpu.dtb_walker_cache.avg_blocked_cycles::no_mshrs          nan                       # average number of cycles each access was blocked
system.cpu.dtb_walker_cache.avg_blocked_cycles::no_targets          nan                       # average number of cycles each access was blocked
system.cpu.dtb_walker_cache.fast_writes             0                       # number of fast writes performed
system.cpu.dtb_walker_cache.cache_copies            0                       # number of cache copies performed
system.cpu.dtb_walker_cache.no_allocate_misses            0                       # Number of misses that were no-allocate
system.cpu.icache.tags.replacements                23                       # number of replacements
system.cpu.icache.tags.tagsinuse           625.470140                       # Cycle average of tags in use
system.cpu.icache.tags.total_refs           677317254                       # Total number of references to valid blocks.
system.cpu.icache.tags.sampled_refs               680                       # Sample count of references to valid blocks.
system.cpu.icache.tags.avg_refs          996054.785294                       # Average number of references to valid blocks.
system.cpu.icache.tags.warmup_cycle                 0                       # Cycle when the warmup percentage was hit.
system.cpu.icache.tags.occ_blocks::cpu.inst   625.470140                       # Average occupied blocks per requestor
system.cpu.icache.tags.occ_percent::cpu.inst     0.305405                       # Average percentage of cache occupancy
system.cpu.icache.tags.occ_percent::total     0.305405                       # Average percentage of cache occupancy
system.cpu.icache.tags.occ_task_id_blocks::1024          657                       # Occupied blocks per task id
system.cpu.icache.tags.age_task_id_blocks_1024::4          657                       # Occupied blocks per task id
system.cpu.icache.tags.occ_task_id_percent::1024     0.320801                       # Percentage of cache occupancy per task id
system.cpu.icache.tags.tag_accesses        1354636548                       # Number of tag accesses
system.cpu.icache.tags.data_accesses       1354636548                       # Number of data accesses
system.cpu.icache.ReadReq_hits::cpu.inst    677317254                       # number of ReadReq hits
system.cpu.icache.ReadReq_hits::total       677317254                       # number of ReadReq hits
system.cpu.icache.demand_hits::cpu.inst     677317254                       # number of demand (read+write) hits
system.cpu.icache.demand_hits::total        677317254                       # number of demand (read+write) hits
system.cpu.icache.overall_hits::cpu.inst    677317254                       # number of overall hits
system.cpu.icache.overall_hits::total       677317254                       # number of overall hits
system.cpu.icache.ReadReq_misses::cpu.inst          680                       # number of ReadReq misses
system.cpu.icache.ReadReq_misses::total           680                       # number of ReadReq misses
system.cpu.icache.demand_misses::cpu.inst          680                       # number of demand (read+write) misses
system.cpu.icache.demand_misses::total            680                       # number of demand (read+write) misses
system.cpu.icache.overall_misses::cpu.inst          680                       # number of overall misses
system.cpu.icache.overall_misses::total           680                       # number of overall misses
system.cpu.icache.ReadReq_miss_latency::cpu.inst     54654000                       # number of ReadReq miss cycles
system.cpu.icache.ReadReq_miss_latency::total     54654000                       # number of ReadReq miss cycles
system.cpu.icache.demand_miss_latency::cpu.inst     54654000                       # number of demand (read+write) miss cycles
system.cpu.icache.demand_miss_latency::total     54654000                       # number of demand (read+write) miss cycles
system.cpu.icache.overall_miss_latency::cpu.inst     54654000                       # number of overall miss cycles
system.cpu.icache.overall_miss_latency::total     54654000                       # number of overall miss cycles
system.cpu.icache.ReadReq_accesses::cpu.inst    677317934                       # number of ReadReq accesses(hits+misses)
system.cpu.icache.ReadReq_accesses::total    677317934                       # number of ReadReq accesses(hits+misses)
system.cpu.icache.demand_accesses::cpu.inst    677317934                       # number of demand (read+write) accesses
system.cpu.icache.demand_accesses::total    677317934                       # number of demand (read+write) accesses
system.cpu.icache.overall_accesses::cpu.inst    677317934                       # number of overall (read+write) accesses
system.cpu.icache.overall_accesses::total    677317934                       # number of overall (read+write) accesses
system.cpu.icache.ReadReq_miss_rate::cpu.inst     0.000001                       # miss rate for ReadReq accesses
system.cpu.icache.ReadReq_miss_rate::total     0.000001                       # miss rate for ReadReq accesses
system.cpu.icache.demand_miss_rate::cpu.inst     0.000001                       # miss rate for demand accesses
system.cpu.icache.demand_miss_rate::total     0.000001                       # miss rate for demand accesses
system.cpu.icache.overall_miss_rate::cpu.inst     0.000001                       # miss rate for overall accesses
system.cpu.icache.overall_miss_rate::total     0.000001                       # miss rate for overall accesses
system.cpu.icache.ReadReq_avg_miss_latency::cpu.inst 80373.529412                       # average ReadReq miss latency
system.cpu.icache.ReadReq_avg_miss_latency::total 80373.529412                       # average ReadReq miss latency
system.cpu.icache.demand_avg_miss_latency::cpu.inst 80373.529412                       # average overall miss latency
system.cpu.icache.demand_avg_miss_latency::total 80373.529412                       # average overall miss latency
system.cpu.icache.overall_avg_miss_latency::cpu.inst 80373.529412                       # average overall miss latency
system.cpu.icache.overall_avg_miss_latency::total 80373.529412                       # average overall miss latency
system.cpu.icache.blocked_cycles::no_mshrs            0                       # number of cycles access was blocked
system.cpu.icache.blocked_cycles::no_targets            0                       # number of cycles access was blocked
system.cpu.icache.blocked::no_mshrs                 0                       # number of cycles access was blocked
system.cpu.icache.blocked::no_targets               0                       # number of cycles access was blocked
system.cpu.icache.avg_blocked_cycles::no_mshrs          nan                       # average number of cycles each access was blocked
system.cpu.icache.avg_blocked_cycles::no_targets          nan                       # average number of cycles each access was blocked
system.cpu.icache.fast_writes                       0                       # number of fast writes performed
system.cpu.icache.cache_copies                      0                       # number of cache copies performed
system.cpu.icache.writebacks::writebacks           23                       # number of writebacks
system.cpu.icache.writebacks::total                23                       # number of writebacks
system.cpu.icache.ReadReq_mshr_misses::cpu.inst          680                       # number of ReadReq MSHR misses
system.cpu.icache.ReadReq_mshr_misses::total          680                       # number of ReadReq MSHR misses
system.cpu.icache.demand_mshr_misses::cpu.inst          680                       # number of demand (read+write) MSHR misses
system.cpu.icache.demand_mshr_misses::total          680                       # number of demand (read+write) MSHR misses
system.cpu.icache.overall_mshr_misses::cpu.inst          680                       # number of overall MSHR misses
system.cpu.icache.overall_mshr_misses::total          680                       # number of overall MSHR misses
system.cpu.icache.ReadReq_mshr_miss_latency::cpu.inst     53974000                       # number of ReadReq MSHR miss cycles
system.cpu.icache.ReadReq_mshr_miss_latency::total     53974000                       # number of ReadReq MSHR miss cycles
system.cpu.icache.demand_mshr_miss_latency::cpu.inst     53974000                       # number of demand (read+write) MSHR miss cycles
system.cpu.icache.demand_mshr_miss_latency::total     53974000                       # number of demand (read+write) MSHR miss cycles
system.cpu.icache.overall_mshr_miss_latency::cpu.inst     53974000                       # number of overall MSHR miss cycles
system.cpu.icache.overall_mshr_miss_latency::total     53974000                       # number of overall MSHR miss cycles
system.cpu.icache.ReadReq_mshr_miss_rate::cpu.inst     0.000001                       # mshr miss rate for ReadReq accesses
system.cpu.icache.ReadReq_mshr_miss_rate::total     0.000001                       # mshr miss rate for ReadReq accesses
system.cpu.icache.demand_mshr_miss_rate::cpu.inst     0.000001                       # mshr miss rate for demand accesses
system.cpu.icache.demand_mshr_miss_rate::total     0.000001                       # mshr miss rate for demand accesses
system.cpu.icache.overall_mshr_miss_rate::cpu.inst     0.000001                       # mshr miss rate for overall accesses
system.cpu.icache.overall_mshr_miss_rate::total     0.000001                       # mshr miss rate for overall accesses
system.cpu.icache.ReadReq_avg_mshr_miss_latency::cpu.inst 79373.529412                       # average ReadReq mshr miss latency
system.cpu.icache.ReadReq_avg_mshr_miss_latency::total 79373.529412                       # average ReadReq mshr miss latency
system.cpu.icache.demand_avg_mshr_miss_latency::cpu.inst 79373.529412                       # average overall mshr miss latency
system.cpu.icache.demand_avg_mshr_miss_latency::total 79373.529412                       # average overall mshr miss latency
system.cpu.icache.overall_avg_mshr_miss_latency::cpu.inst 79373.529412                       # average overall mshr miss latency
system.cpu.icache.overall_avg_mshr_miss_latency::total 79373.529412                       # average overall mshr miss latency
system.cpu.icache.no_allocate_misses                0                       # Number of misses that were no-allocate
system.cpu.itb_walker_cache.tags.replacements            0                       # number of replacements
system.cpu.itb_walker_cache.tags.tagsinuse            0                       # Cycle average of tags in use
system.cpu.itb_walker_cache.tags.total_refs            0                       # Total number of references to valid blocks.
system.cpu.itb_walker_cache.tags.sampled_refs            0                       # Sample count of references to valid blocks.
system.cpu.itb_walker_cache.tags.avg_refs          nan                       # Average number of references to valid blocks.
system.cpu.itb_walker_cache.tags.warmup_cycle            0                       # Cycle when the warmup percentage was hit.
system.cpu.itb_walker_cache.tags.tag_accesses            0                       # Number of tag accesses
system.cpu.itb_walker_cache.tags.data_accesses            0                       # Number of data accesses
system.cpu.itb_walker_cache.blocked_cycles::no_mshrs            0                       # number of cycles access was blocked
system.cpu.itb_walker_cache.blocked_cycles::no_targets            0                       # number of cycles access was blocked
system.cpu.itb_walker_cache.blocked::no_mshrs            0                       # number of cycles access was blocked
system.cpu.itb_walker_cache.blocked::no_targets            0                       # number of cycles access was blocked
system.cpu.itb_walker_cache.avg_blocked_cycles::no_mshrs          nan                       # average number of cycles each access was blocked
system.cpu.itb_walker_cache.avg_blocked_cycles::no_targets          nan                       # average number of cycles each access was blocked
system.cpu.itb_walker_cache.fast_writes             0                       # number of fast writes performed
system.cpu.itb_walker_cache.cache_copies            0                       # number of cache copies performed
system.cpu.itb_walker_cache.no_allocate_misses            0                       # Number of misses that were no-allocate
system.l2.tags.replacements                  11278124                       # number of replacements
system.l2.tags.tagsinuse                   505.793567                       # Cycle average of tags in use
system.l2.tags.total_refs                      230142                       # Total number of references to valid blocks.
system.l2.tags.sampled_refs                  11278623                       # Sample count of references to valid blocks.
system.l2.tags.avg_refs                      0.020405                       # Average number of references to valid blocks.
system.l2.tags.warmup_cycle                2049079000                       # Cycle when the warmup percentage was hit.
system.l2.tags.occ_blocks::writebacks      138.634934                       # Average occupied blocks per requestor
system.l2.tags.occ_blocks::cpu.inst          0.046429                       # Average occupied blocks per requestor
system.l2.tags.occ_blocks::cpu.data        367.112204                       # Average occupied blocks per requestor
system.l2.tags.occ_percent::writebacks       0.270771                       # Average percentage of cache occupancy
system.l2.tags.occ_percent::cpu.inst         0.000091                       # Average percentage of cache occupancy
system.l2.tags.occ_percent::cpu.data         0.717016                       # Average percentage of cache occupancy
system.l2.tags.occ_percent::total            0.987878                       # Average percentage of cache occupancy
system.l2.tags.occ_task_id_blocks::1024           499                       # Occupied blocks per task id
system.l2.tags.age_task_id_blocks_1024::1          340                       # Occupied blocks per task id
system.l2.tags.age_task_id_blocks_1024::2          159                       # Occupied blocks per task id
system.l2.tags.occ_task_id_percent::1024     0.974609                       # Percentage of cache occupancy per task id
system.l2.tags.tag_accesses                  32049636                       # Number of tag accesses
system.l2.tags.data_accesses                 32049636                       # Number of data accesses
system.l2.WritebackDirty_hits::writebacks      1629345                       # number of WritebackDirty hits
system.l2.WritebackDirty_hits::total          1629345                       # number of WritebackDirty hits
system.l2.WritebackClean_hits::writebacks           23                       # number of WritebackClean hits
system.l2.WritebackClean_hits::total               23                       # number of WritebackClean hits
system.l2.ReadExReq_hits::cpu.data              69377                       # number of ReadExReq hits
system.l2.ReadExReq_hits::total                 69377                       # number of ReadExReq hits
system.l2.ReadSharedReq_hits::cpu.data         160770                       # number of ReadSharedReq hits
system.l2.ReadSharedReq_hits::total            160770                       # number of ReadSharedReq hits
system.l2.demand_hits::cpu.data                230147                       # number of demand (read+write) hits
system.l2.demand_hits::total                   230147                       # number of demand (read+write) hits
system.l2.overall_hits::cpu.data               230147                       # number of overall hits
system.l2.overall_hits::total                  230147                       # number of overall hits
system.l2.ReadExReq_misses::cpu.data           268928                       # number of ReadExReq misses
system.l2.ReadExReq_misses::total              268928                       # number of ReadExReq misses
system.l2.ReadCleanReq_misses::cpu.inst           680                       # number of ReadCleanReq misses
system.l2.ReadCleanReq_misses::total              680                       # number of ReadCleanReq misses
system.l2.ReadSharedReq_misses::cpu.data      9717952                       # number of ReadSharedReq misses
system.l2.ReadSharedReq_misses::total         9717952                       # number of ReadSharedReq misses
system.l2.demand_misses::cpu.inst                 680                       # number of demand (read+write) misses
system.l2.demand_misses::cpu.data             9986880                       # number of demand (read+write) misses
system.l2.demand_misses::total                9987560                       # number of demand (read+write) misses
system.l2.overall_misses::cpu.inst                680                       # number of overall misses
system.l2.overall_misses::cpu.data            9986880                       # number of overall misses
system.l2.overall_misses::total               9987560                       # number of overall misses
system.l2.ReadExReq_miss_latency::cpu.data  20723377500                       # number of ReadExReq miss cycles
system.l2.ReadExReq_miss_latency::total   20723377500                       # number of ReadExReq miss cycles
system.l2.ReadCleanReq_miss_latency::cpu.inst     52952500                       # number of ReadCleanReq miss cycles
system.l2.ReadCleanReq_miss_latency::total     52952500                       # number of ReadCleanReq miss cycles
system.l2.ReadSharedReq_miss_latency::cpu.data 890912209000                       # number of ReadSharedReq miss cycles
system.l2.ReadSharedReq_miss_latency::total 890912209000                       # number of ReadSharedReq miss cycles
system.l2.demand_miss_latency::cpu.inst      52952500                       # number of demand (read+write) miss cycles
system.l2.demand_miss_latency::cpu.data  911635586500                       # number of demand (read+write) miss cycles
system.l2.demand_miss_latency::total     911688539000                       # number of demand (read+write) miss cycles
system.l2.overall_miss_latency::cpu.inst     52952500                       # number of overall miss cycles
system.l2.overall_miss_latency::cpu.data 911635586500                       # number of overall miss cycles
system.l2.overall_miss_latency::total    911688539000                       # number of overall miss cycles
system.l2.WritebackDirty_accesses::writebacks      1629345                       # number of WritebackDirty accesses(hits+misses)
system.l2.WritebackDirty_accesses::total      1629345                       # number of WritebackDirty accesses(hits+misses)
system.l2.WritebackClean_accesses::writebacks           23                       # number of WritebackClean accesses(hits+misses)
system.l2.WritebackClean_accesses::total           23                       # number of WritebackClean accesses(hits+misses)
system.l2.ReadExReq_accesses::cpu.data         338305                       # number of ReadExReq accesses(hits+misses)
system.l2.ReadExReq_accesses::total            338305                       # number of ReadExReq accesses(hits+misses)
system.l2.ReadCleanReq_accesses::cpu.inst          680                       # number of ReadCleanReq accesses(hits+misses)
system.l2.ReadCleanReq_accesses::total            680                       # number of ReadCleanReq accesses(hits+misses)
system.l2.ReadSharedReq_accesses::cpu.data      9878722                       # number of ReadSharedReq accesses(hits+misses)
system.l2.ReadSharedReq_accesses::total       9878722                       # number of ReadSharedReq accesses(hits+misses)
system.l2.demand_accesses::cpu.inst               680                       # number of demand (read+write) accesses
system.l2.demand_accesses::cpu.data          10217027                       # number of demand (read+write) accesses
system.l2.demand_accesses::total             10217707                       # number of demand (read+write) accesses
system.l2.overall_accesses::cpu.inst              680                       # number of overall (read+write) accesses
system.l2.overall_accesses::cpu.data         10217027                       # number of overall (read+write) accesses
system.l2.overall_accesses::total            10217707                       # number of overall (read+write) accesses
system.l2.ReadExReq_miss_rate::cpu.data      0.794928                       # miss rate for ReadExReq accesses
system.l2.ReadExReq_miss_rate::total         0.794928                       # miss rate for ReadExReq accesses
system.l2.ReadCleanReq_miss_rate::cpu.inst            1                       # miss rate for ReadCleanReq accesses
system.l2.ReadCleanReq_miss_rate::total             1                       # miss rate for ReadCleanReq accesses
system.l2.ReadSharedReq_miss_rate::cpu.data     0.983726                       # miss rate for ReadSharedReq accesses
system.l2.ReadSharedReq_miss_rate::total     0.983726                       # miss rate for ReadSharedReq accesses
system.l2.demand_miss_rate::cpu.inst                1                       # miss rate for demand accesses
system.l2.demand_miss_rate::cpu.data         0.977474                       # miss rate for demand accesses
system.l2.demand_miss_rate::total            0.977476                       # miss rate for demand accesses
system.l2.overall_miss_rate::cpu.inst               1                       # miss rate for overall accesses
system.l2.overall_miss_rate::cpu.data        0.977474                       # miss rate for overall accesses
system.l2.overall_miss_rate::total           0.977476                       # miss rate for overall accesses
system.l2.ReadExReq_avg_miss_latency::cpu.data 77059.203579                       # average ReadExReq miss latency
system.l2.ReadExReq_avg_miss_latency::total 77059.203579                       # average ReadExReq miss latency
system.l2.ReadCleanReq_avg_miss_latency::cpu.inst 77871.323529                       # average ReadCleanReq miss latency
system.l2.ReadCleanReq_avg_miss_latency::total 77871.323529                       # average ReadCleanReq miss latency
system.l2.ReadSharedReq_avg_miss_latency::cpu.data 91676.950967                       # average ReadSharedReq miss latency
system.l2.ReadSharedReq_avg_miss_latency::total 91676.950967                       # average ReadSharedReq miss latency
system.l2.demand_avg_miss_latency::cpu.inst 77871.323529                       # average overall miss latency
system.l2.demand_avg_miss_latency::cpu.data 91283.322369                       # average overall miss latency
system.l2.demand_avg_miss_latency::total 91282.409217                       # average overall miss latency
system.l2.overall_avg_miss_latency::cpu.inst 77871.323529                       # average overall miss latency
system.l2.overall_avg_miss_latency::cpu.data 91283.322369                       # average overall miss latency
system.l2.overall_avg_miss_latency::total 91282.409217                       # average overall miss latency
system.l2.blocked_cycles::no_mshrs                  0                       # number of cycles access was blocked
system.l2.blocked_cycles::no_targets                0                       # number of cycles access was blocked
system.l2.blocked::no_mshrs                         0                       # number of cycles access was blocked
system.l2.blocked::no_targets                       0                       # number of cycles access was blocked
system.l2.avg_blocked_cycles::no_mshrs            nan                       # average number of cycles each access was blocked
system.l2.avg_blocked_cycles::no_targets          nan                       # average number of cycles each access was blocked
system.l2.fast_writes                               0                       # number of fast writes performed
system.l2.cache_copies                              0                       # number of cache copies performed
system.l2.writebacks::writebacks              1399159                       # number of writebacks
system.l2.writebacks::total                   1399159                       # number of writebacks
system.l2.CleanEvict_mshr_misses::writebacks      8585633                       # number of CleanEvict MSHR misses
system.l2.CleanEvict_mshr_misses::total       8585633                       # number of CleanEvict MSHR misses
system.l2.ReadExReq_mshr_misses::cpu.data       268928                       # number of ReadExReq MSHR misses
system.l2.ReadExReq_mshr_misses::total         268928                       # number of ReadExReq MSHR misses
system.l2.ReadCleanReq_mshr_misses::cpu.inst          680                       # number of ReadCleanReq MSHR misses
system.l2.ReadCleanReq_mshr_misses::total          680                       # number of ReadCleanReq MSHR misses
system.l2.ReadSharedReq_mshr_misses::cpu.data      9717952                       # number of ReadSharedReq MSHR misses
system.l2.ReadSharedReq_mshr_misses::total      9717952                       # number of ReadSharedReq MSHR misses
system.l2.demand_mshr_misses::cpu.inst            680                       # number of demand (read+write) MSHR misses
system.l2.demand_mshr_misses::cpu.data        9986880                       # number of demand (read+write) MSHR misses
system.l2.demand_mshr_misses::total           9987560                       # number of demand (read+write) MSHR misses
system.l2.overall_mshr_misses::cpu.inst           680                       # number of overall MSHR misses
system.l2.overall_mshr_misses::cpu.data       9986880                       # number of overall MSHR misses
system.l2.overall_mshr_misses::total          9987560                       # number of overall MSHR misses
system.l2.ReadExReq_mshr_miss_latency::cpu.data  18034097500                       # number of ReadExReq MSHR miss cycles
system.l2.ReadExReq_mshr_miss_latency::total  18034097500                       # number of ReadExReq MSHR miss cycles
system.l2.ReadCleanReq_mshr_miss_latency::cpu.inst     46152500                       # number of ReadCleanReq MSHR miss cycles
system.l2.ReadCleanReq_mshr_miss_latency::total     46152500                       # number of ReadCleanReq MSHR miss cycles
system.l2.ReadSharedReq_mshr_miss_latency::cpu.data 793732689000                       # number of ReadSharedReq MSHR miss cycles
system.l2.ReadSharedReq_mshr_miss_latency::total 793732689000                       # number of ReadSharedReq MSHR miss cycles
system.l2.demand_mshr_miss_latency::cpu.inst     46152500                       # number of demand (read+write) MSHR miss cycles
system.l2.demand_mshr_miss_latency::cpu.data 811766786500                       # number of demand (read+write) MSHR miss cycles
system.l2.demand_mshr_miss_latency::total 811812939000                       # number of demand (read+write) MSHR miss cycles
system.l2.overall_mshr_miss_latency::cpu.inst     46152500                       # number of overall MSHR miss cycles
system.l2.overall_mshr_miss_latency::cpu.data 811766786500                       # number of overall MSHR miss cycles
system.l2.overall_mshr_miss_latency::total 811812939000                       # number of overall MSHR miss cycles
system.l2.CleanEvict_mshr_miss_rate::writebacks          inf                       # mshr miss rate for CleanEvict accesses
system.l2.CleanEvict_mshr_miss_rate::total          inf                       # mshr miss rate for CleanEvict accesses
system.l2.ReadExReq_mshr_miss_rate::cpu.data     0.794928                       # mshr miss rate for ReadExReq accesses
system.l2.ReadExReq_mshr_miss_rate::total     0.794928                       # mshr miss rate for ReadExReq accesses
system.l2.ReadCleanReq_mshr_miss_rate::cpu.inst            1                       # mshr miss rate for ReadCleanReq accesses
system.l2.ReadCleanReq_mshr_miss_rate::total            1                       # mshr miss rate for ReadCleanReq accesses
system.l2.ReadSharedReq_mshr_miss_rate::cpu.data     0.983726                       # mshr miss rate for ReadSharedReq accesses
system.l2.ReadSharedReq_mshr_miss_rate::total     0.983726                       # mshr miss rate for ReadSharedReq accesses
system.l2.demand_mshr_miss_rate::cpu.inst            1                       # mshr miss rate for demand accesses
system.l2.demand_mshr_miss_rate::cpu.data     0.977474                       # mshr miss rate for demand accesses
system.l2.demand_mshr_miss_rate::total       0.977476                       # mshr miss rate for demand accesses
system.l2.overall_mshr_miss_rate::cpu.inst            1                       # mshr miss rate for overall accesses
system.l2.overall_mshr_miss_rate::cpu.data     0.977474                       # mshr miss rate for overall accesses
system.l2.overall_mshr_miss_rate::total      0.977476                       # mshr miss rate for overall accesses
system.l2.ReadExReq_avg_mshr_miss_latency::cpu.data 67059.203579                       # average ReadExReq mshr miss latency
system.l2.ReadExReq_avg_mshr_miss_latency::total 67059.203579                       # average ReadExReq mshr miss latency
system.l2.ReadCleanReq_avg_mshr_miss_latency::cpu.inst 67871.323529                       # average ReadCleanReq mshr miss latency
system.l2.ReadCleanReq_avg_mshr_miss_latency::total 67871.323529                       # average ReadCleanReq mshr miss latency
system.l2.ReadSharedReq_avg_mshr_miss_latency::cpu.data 81676.950967                       # average ReadSharedReq mshr miss latency
system.l2.ReadSharedReq_avg_mshr_miss_latency::total 81676.950967                       # average ReadSharedReq mshr miss latency
system.l2.demand_avg_mshr_miss_latency::cpu.inst 67871.323529                       # average overall mshr miss latency
system.l2.demand_avg_mshr_miss_latency::cpu.data 81283.322369                       # average overall mshr miss latency
system.l2.demand_avg_mshr_miss_latency::total 81282.409217                       # average overall mshr miss latency
system.l2.overall_avg_mshr_miss_latency::cpu.inst 67871.323529                       # average overall mshr miss latency
system.l2.overall_avg_mshr_miss_latency::cpu.data 81283.322369                       # average overall mshr miss latency
system.l2.overall_avg_mshr_miss_latency::total 81282.409217                       # average overall mshr miss latency
system.l2.no_allocate_misses                        0                       # Number of misses that were no-allocate
system.membus.trans_dist::ReadResp            9718632                       # Transaction distribution
system.membus.trans_dist::WritebackDirty      1399159                       # Transaction distribution
system.membus.trans_dist::CleanEvict          8585656                       # Transaction distribution
system.membus.trans_dist::ReadExReq            268928                       # Transaction distribution
system.membus.trans_dist::ReadExResp           268928                       # Transaction distribution
system.membus.trans_dist::ReadSharedReq       9718632                       # Transaction distribution
system.membus.pkt_count_system.l2.mem_side::system.mem_ctrls.port     29959935                       # Packet count per connected master and slave (bytes)
system.membus.pkt_count_system.l2.mem_side::total     29959935                       # Packet count per connected master and slave (bytes)
system.membus.pkt_count::total               29959935                       # Packet count per connected master and slave (bytes)
system.membus.pkt_size_system.l2.mem_side::system.mem_ctrls.port    728750016                       # Cumulative packet size per connected master and slave (bytes)
system.membus.pkt_size_system.l2.mem_side::total    728750016                       # Cumulative packet size per connected master and slave (bytes)
system.membus.pkt_size::total               728750016                       # Cumulative packet size per connected master and slave (bytes)
system.membus.snoops                                0                       # Total snoops (count)
system.membus.snoop_fanout::samples          19972375                       # Request fanout histogram
system.membus.snoop_fanout::mean                    0                       # Request fanout histogram
system.membus.snoop_fanout::stdev                   0                       # Request fanout histogram
system.membus.snoop_fanout::underflows              0      0.00%      0.00% # Request fanout histogram
system.membus.snoop_fanout::0                19972375    100.00%    100.00% # Request fanout histogram
system.membus.snoop_fanout::1                       0      0.00%    100.00% # Request fanout histogram
system.membus.snoop_fanout::overflows               0      0.00%    100.00% # Request fanout histogram
system.membus.snoop_fanout::min_value               0                       # Request fanout histogram
system.membus.snoop_fanout::max_value               0                       # Request fanout histogram
system.membus.snoop_fanout::total            19972375                       # Request fanout histogram
system.membus.reqLayer2.occupancy         25577708000                       # Layer occupancy (ticks)
system.membus.reqLayer2.utilization               1.3                       # Layer utilization (%)
system.membus.respLayer1.occupancy        55758714750                       # Layer occupancy (ticks)
system.membus.respLayer1.utilization              2.9                       # Layer utilization (%)
system.tol2bus.snoop_filter.tot_requests     20432709                       # Total number of requests made to the snoop filter.
system.tol2bus.snoop_filter.hit_single_requests     10215002                       # Number of requests hitting in the snoop filter with a single holder of the requested data.
system.tol2bus.snoop_filter.hit_multi_requests            1                       # Number of requests hitting in the snoop filter with multiple (>1) holders of the requested data.
system.tol2bus.snoop_filter.tot_snoops        9878942                       # Total number of snoops made to the snoop filter.
system.tol2bus.snoop_filter.hit_single_snoops      9878941                       # Number of snoops hitting in the snoop filter with a single holder of the requested data.
system.tol2bus.snoop_filter.hit_multi_snoops            1                       # Number of snoops hitting in the snoop filter with multiple (>1) holders of the requested data.
system.tol2bus.trans_dist::ReadResp           9879402                       # Transaction distribution
system.tol2bus.trans_dist::WritebackDirty      3028504                       # Transaction distribution
system.tol2bus.trans_dist::WritebackClean           23                       # Transaction distribution
system.tol2bus.trans_dist::CleanEvict        18464598                       # Transaction distribution
system.tol2bus.trans_dist::ReadExReq           338305                       # Transaction distribution
system.tol2bus.trans_dist::ReadExResp          338305                       # Transaction distribution
system.tol2bus.trans_dist::ReadCleanReq           680                       # Transaction distribution
system.tol2bus.trans_dist::ReadSharedReq      9878722                       # Transaction distribution
system.tol2bus.pkt_count_system.cpu.icache.mem_side::system.l2.cpu_side         1383                       # Packet count per connected master and slave (bytes)
system.tol2bus.pkt_count_system.cpu.dcache.mem_side::system.l2.cpu_side     30649032                       # Packet count per connected master and slave (bytes)
system.tol2bus.pkt_count::total              30650415                       # Packet count per connected master and slave (bytes)
system.tol2bus.pkt_size_system.cpu.icache.mem_side::system.l2.cpu_side        44992                       # Cumulative packet size per connected master and slave (bytes)
system.tol2bus.pkt_size_system.cpu.dcache.mem_side::system.l2.cpu_side    758167808                       # Cumulative packet size per connected master and slave (bytes)
system.tol2bus.pkt_size::total              758212800                       # Cumulative packet size per connected master and slave (bytes)
system.tol2bus.snoops                        11278124                       # Total snoops (count)
system.tol2bus.snoop_fanout::samples         21495831                       # Request fanout histogram
system.tol2bus.snoop_fanout::mean            0.459575                       # Request fanout histogram
system.tol2bus.snoop_fanout::stdev           0.498363                       # Request fanout histogram
system.tol2bus.snoop_fanout::underflows             0      0.00%      0.00% # Request fanout histogram
system.tol2bus.snoop_fanout::0               11616888     54.04%     54.04% # Request fanout histogram
system.tol2bus.snoop_fanout::1                9878942     45.96%    100.00% # Request fanout histogram
system.tol2bus.snoop_fanout::2                      1      0.00%    100.00% # Request fanout histogram
system.tol2bus.snoop_fanout::3                      0      0.00%    100.00% # Request fanout histogram
system.tol2bus.snoop_fanout::4                      0      0.00%    100.00% # Request fanout histogram
system.tol2bus.snoop_fanout::overflows              0      0.00%    100.00% # Request fanout histogram
system.tol2bus.snoop_fanout::min_value              0                       # Request fanout histogram
system.tol2bus.snoop_fanout::max_value              2                       # Request fanout histogram
system.tol2bus.snoop_fanout::total           21495831                       # Request fanout histogram
system.tol2bus.reqLayer0.occupancy        11845722500                       # Layer occupancy (ticks)
system.tol2bus.reqLayer0.utilization              0.6                       # Layer utilization (%)
system.tol2bus.respLayer0.occupancy           1020000                       # Layer occupancy (ticks)
system.tol2bus.respLayer0.utilization             0.0                       # Layer utilization (%)
system.tol2bus.respLayer1.occupancy       15325540500                       # Layer occupancy (ticks)
system.tol2bus.respLayer1.utilization             0.8                       # Layer utilization (%)

---------- End Simulation Statistics   ----------
