
---------- Begin Simulation Statistics ----------
sim_seconds                                  1.858584                       # Number of seconds simulated
sim_ticks                                1858584096500                       # Number of ticks simulated
final_tick                               1858584096500                       # Number of ticks from beginning of simulation (restored from checkpoints and never reset)
sim_freq                                 1000000000000                       # Frequency of simulated ticks
host_inst_rate                                  33801                       # Simulator instruction rate (inst/s)
host_op_rate                                    59240                       # Simulator op (including micro ops) rate (op/s)
host_tick_rate                              125643289                       # Simulator tick rate (ticks/s)
host_mem_usage                                 826528                       # Number of bytes of host memory used
host_seconds                                 14792.55                       # Real time elapsed on the host
sim_insts                                   500000000                       # Number of instructions simulated
sim_ops                                     876313787                       # Number of ops (including micro ops) simulated
system.voltage_domain.voltage                       1                       # Voltage in Volts
system.clk_domain.clock                          1000                       # Clock period in ticks
system.mem_ctrls.bytes_read::cpu.inst         2064704                       # Number of bytes read from this memory
system.mem_ctrls.bytes_read::cpu.data       420232064                       # Number of bytes read from this memory
system.mem_ctrls.bytes_read::total          422296768                       # Number of bytes read from this memory
system.mem_ctrls.bytes_inst_read::cpu.inst      2064704                       # Number of instructions bytes read from this memory
system.mem_ctrls.bytes_inst_read::total       2064704                       # Number of instructions bytes read from this memory
system.mem_ctrls.bytes_written::writebacks     71419008                       # Number of bytes written to this memory
system.mem_ctrls.bytes_written::total        71419008                       # Number of bytes written to this memory
system.mem_ctrls.num_reads::cpu.inst            32261                       # Number of read requests responded to by this memory
system.mem_ctrls.num_reads::cpu.data          6566126                       # Number of read requests responded to by this memory
system.mem_ctrls.num_reads::total             6598387                       # Number of read requests responded to by this memory
system.mem_ctrls.num_writes::writebacks       1115922                       # Number of write requests responded to by this memory
system.mem_ctrls.num_writes::total            1115922                       # Number of write requests responded to by this memory
system.mem_ctrls.bw_read::cpu.inst            1110902                       # Total read bandwidth from this memory (bytes/s)
system.mem_ctrls.bw_read::cpu.data          226103336                       # Total read bandwidth from this memory (bytes/s)
system.mem_ctrls.bw_read::total             227214237                       # Total read bandwidth from this memory (bytes/s)
system.mem_ctrls.bw_inst_read::cpu.inst       1110902                       # Instruction read bandwidth from this memory (bytes/s)
system.mem_ctrls.bw_inst_read::total          1110902                       # Instruction read bandwidth from this memory (bytes/s)
system.mem_ctrls.bw_write::writebacks        38426568                       # Write bandwidth from this memory (bytes/s)
system.mem_ctrls.bw_write::total             38426568                       # Write bandwidth from this memory (bytes/s)
system.mem_ctrls.bw_total::writebacks        38426568                       # Total bandwidth to/from this memory (bytes/s)
system.mem_ctrls.bw_total::cpu.inst           1110902                       # Total bandwidth to/from this memory (bytes/s)
system.mem_ctrls.bw_total::cpu.data         226103336                       # Total bandwidth to/from this memory (bytes/s)
system.mem_ctrls.bw_total::total            265640805                       # Total bandwidth to/from this memory (bytes/s)
system.mem_ctrls.readReqs                     6598387                       # Number of read requests accepted
system.mem_ctrls.writeReqs                    1115922                       # Number of write requests accepted
system.mem_ctrls.readBursts                   6598387                       # Number of DRAM read bursts, including those serviced by the write queue
system.mem_ctrls.writeBursts                  1115922                       # Number of DRAM write bursts, including those merged in the write queue
system.mem_ctrls.bytesReadDRAM              421517248                       # Total number of bytes read from DRAM
system.mem_ctrls.bytesReadWrQ                  779520                       # Total number of bytes read from write queue
system.mem_ctrls.bytesWritten                71414144                       # Total number of bytes written to DRAM
system.mem_ctrls.bytesReadSys               422296768                       # Total read bytes from the system interface side
system.mem_ctrls.bytesWrittenSys             71419008                       # Total written bytes from the system interface side
system.mem_ctrls.servicedByWrQ                  12180                       # Number of DRAM read bursts serviced by the write queue
system.mem_ctrls.mergedWrBursts                    50                       # Number of DRAM write bursts merged with an existing one
system.mem_ctrls.neitherReadNorWriteReqs      5465996                       # Number of requests that are neither read nor write
system.mem_ctrls.perBankRdBursts::0            421680                       # Per bank write bursts
system.mem_ctrls.perBankRdBursts::1            430506                       # Per bank write bursts
system.mem_ctrls.perBankRdBursts::2            419793                       # Per bank write bursts
system.mem_ctrls.perBankRdBursts::3            424946                       # Per bank write bursts
system.mem_ctrls.perBankRdBursts::4            397753                       # Per bank write bursts
system.mem_ctrls.perBankRdBursts::5            400187                       # Per bank write bursts
system.mem_ctrls.perBankRdBursts::6            409643                       # Per bank write bursts
system.mem_ctrls.perBankRdBursts::7            397694                       # Per bank write bursts
system.mem_ctrls.perBankRdBursts::8            401903                       # Per bank write bursts
system.mem_ctrls.perBankRdBursts::9            400420                       # Per bank write bursts
system.mem_ctrls.perBankRdBursts::10           402719                       # Per bank write bursts
system.mem_ctrls.perBankRdBursts::11           407185                       # Per bank write bursts
system.mem_ctrls.perBankRdBursts::12           417940                       # Per bank write bursts
system.mem_ctrls.perBankRdBursts::13           421139                       # Per bank write bursts
system.mem_ctrls.perBankRdBursts::14           414881                       # Per bank write bursts
system.mem_ctrls.perBankRdBursts::15           417818                       # Per bank write bursts
system.mem_ctrls.perBankWrBursts::0             71865                       # Per bank write bursts
system.mem_ctrls.perBankWrBursts::1             71590                       # Per bank write bursts
system.mem_ctrls.perBankWrBursts::2             71484                       # Per bank write bursts
system.mem_ctrls.perBankWrBursts::3             75522                       # Per bank write bursts
system.mem_ctrls.perBankWrBursts::4             68936                       # Per bank write bursts
system.mem_ctrls.perBankWrBursts::5             66285                       # Per bank write bursts
system.mem_ctrls.perBankWrBursts::6             69197                       # Per bank write bursts
system.mem_ctrls.perBankWrBursts::7             65849                       # Per bank write bursts
system.mem_ctrls.perBankWrBursts::8             67007                       # Per bank write bursts
system.mem_ctrls.perBankWrBursts::9             65603                       # Per bank write bursts
system.mem_ctrls.perBankWrBursts::10            66044                       # Per bank write bursts
system.mem_ctrls.perBankWrBursts::11            69656                       # Per bank write bursts
system.mem_ctrls.perBankWrBursts::12            71877                       # Per bank write bursts
system.mem_ctrls.perBankWrBursts::13            71963                       # Per bank write bursts
system.mem_ctrls.perBankWrBursts::14            71424                       # Per bank write bursts
system.mem_ctrls.perBankWrBursts::15            71544                       # Per bank write bursts
system.mem_ctrls.numRdRetry                         0                       # Number of times read queue was full causing retry
system.mem_ctrls.numWrRetry                         0                       # Number of times write queue was full causing retry
system.mem_ctrls.totGap                  1858567684500                       # Total gap between requests
system.mem_ctrls.readPktSize::0                     0                       # Read request sizes (log2)
system.mem_ctrls.readPktSize::1                     0                       # Read request sizes (log2)
system.mem_ctrls.readPktSize::2                     0                       # Read request sizes (log2)
system.mem_ctrls.readPktSize::3                     0                       # Read request sizes (log2)
system.mem_ctrls.readPktSize::4                     0                       # Read request sizes (log2)
system.mem_ctrls.readPktSize::5                     0                       # Read request sizes (log2)
system.mem_ctrls.readPktSize::6               6598387                       # Read request sizes (log2)
system.mem_ctrls.writePktSize::0                    0                       # Write request sizes (log2)
system.mem_ctrls.writePktSize::1                    0                       # Write request sizes (log2)
system.mem_ctrls.writePktSize::2                    0                       # Write request sizes (log2)
system.mem_ctrls.writePktSize::3                    0                       # Write request sizes (log2)
system.mem_ctrls.writePktSize::4                    0                       # Write request sizes (log2)
system.mem_ctrls.writePktSize::5                    0                       # Write request sizes (log2)
system.mem_ctrls.writePktSize::6              1115922                       # Write request sizes (log2)
system.mem_ctrls.rdQLenPdf::0                 6586207                       # What read queue length does an incoming req see
system.mem_ctrls.rdQLenPdf::1                       0                       # What read queue length does an incoming req see
system.mem_ctrls.rdQLenPdf::2                       0                       # What read queue length does an incoming req see
system.mem_ctrls.rdQLenPdf::3                       0                       # What read queue length does an incoming req see
system.mem_ctrls.rdQLenPdf::4                       0                       # What read queue length does an incoming req see
system.mem_ctrls.rdQLenPdf::5                       0                       # What read queue length does an incoming req see
system.mem_ctrls.rdQLenPdf::6                       0                       # What read queue length does an incoming req see
system.mem_ctrls.rdQLenPdf::7                       0                       # What read queue length does an incoming req see
system.mem_ctrls.rdQLenPdf::8                       0                       # What read queue length does an incoming req see
system.mem_ctrls.rdQLenPdf::9                       0                       # What read queue length does an incoming req see
system.mem_ctrls.rdQLenPdf::10                      0                       # What read queue length does an incoming req see
system.mem_ctrls.rdQLenPdf::11                      0                       # What read queue length does an incoming req see
system.mem_ctrls.rdQLenPdf::12                      0                       # What read queue length does an incoming req see
system.mem_ctrls.rdQLenPdf::13                      0                       # What read queue length does an incoming req see
system.mem_ctrls.rdQLenPdf::14                      0                       # What read queue length does an incoming req see
system.mem_ctrls.rdQLenPdf::15                      0                       # What read queue length does an incoming req see
system.mem_ctrls.rdQLenPdf::16                      0                       # What read queue length does an incoming req see
system.mem_ctrls.rdQLenPdf::17                      0                       # What read queue length does an incoming req see
system.mem_ctrls.rdQLenPdf::18                      0                       # What read queue length does an incoming req see
system.mem_ctrls.rdQLenPdf::19                      0                       # What read queue length does an incoming req see
system.mem_ctrls.rdQLenPdf::20                      0                       # What read queue length does an incoming req see
system.mem_ctrls.rdQLenPdf::21                      0                       # What read queue length does an incoming req see
system.mem_ctrls.rdQLenPdf::22                      0                       # What read queue length does an incoming req see
system.mem_ctrls.rdQLenPdf::23                      0                       # What read queue length does an incoming req see
system.mem_ctrls.rdQLenPdf::24                      0                       # What read queue length does an incoming req see
system.mem_ctrls.rdQLenPdf::25                      0                       # What read queue length does an incoming req see
system.mem_ctrls.rdQLenPdf::26                      0                       # What read queue length does an incoming req see
system.mem_ctrls.rdQLenPdf::27                      0                       # What read queue length does an incoming req see
system.mem_ctrls.rdQLenPdf::28                      0                       # What read queue length does an incoming req see
system.mem_ctrls.rdQLenPdf::29                      0                       # What read queue length does an incoming req see
system.mem_ctrls.rdQLenPdf::30                      0                       # What read queue length does an incoming req see
system.mem_ctrls.rdQLenPdf::31                      0                       # What read queue length does an incoming req see
system.mem_ctrls.wrQLenPdf::0                       1                       # What write queue length does an incoming req see
system.mem_ctrls.wrQLenPdf::1                       1                       # What write queue length does an incoming req see
system.mem_ctrls.wrQLenPdf::2                       1                       # What write queue length does an incoming req see
system.mem_ctrls.wrQLenPdf::3                       1                       # What write queue length does an incoming req see
system.mem_ctrls.wrQLenPdf::4                       1                       # What write queue length does an incoming req see
system.mem_ctrls.wrQLenPdf::5                       1                       # What write queue length does an incoming req see
system.mem_ctrls.wrQLenPdf::6                       1                       # What write queue length does an incoming req see
system.mem_ctrls.wrQLenPdf::7                       1                       # What write queue length does an incoming req see
system.mem_ctrls.wrQLenPdf::8                       1                       # What write queue length does an incoming req see
system.mem_ctrls.wrQLenPdf::9                       1                       # What write queue length does an incoming req see
system.mem_ctrls.wrQLenPdf::10                      1                       # What write queue length does an incoming req see
system.mem_ctrls.wrQLenPdf::11                      1                       # What write queue length does an incoming req see
system.mem_ctrls.wrQLenPdf::12                      1                       # What write queue length does an incoming req see
system.mem_ctrls.wrQLenPdf::13                      1                       # What write queue length does an incoming req see
system.mem_ctrls.wrQLenPdf::14                      1                       # What write queue length does an incoming req see
system.mem_ctrls.wrQLenPdf::15                  33284                       # What write queue length does an incoming req see
system.mem_ctrls.wrQLenPdf::16                  34772                       # What write queue length does an incoming req see
system.mem_ctrls.wrQLenPdf::17                  65373                       # What write queue length does an incoming req see
system.mem_ctrls.wrQLenPdf::18                  65494                       # What write queue length does an incoming req see
system.mem_ctrls.wrQLenPdf::19                  65478                       # What write queue length does an incoming req see
system.mem_ctrls.wrQLenPdf::20                  65492                       # What write queue length does an incoming req see
system.mem_ctrls.wrQLenPdf::21                  65470                       # What write queue length does an incoming req see
system.mem_ctrls.wrQLenPdf::22                  65470                       # What write queue length does an incoming req see
system.mem_ctrls.wrQLenPdf::23                  65476                       # What write queue length does an incoming req see
system.mem_ctrls.wrQLenPdf::24                  65466                       # What write queue length does an incoming req see
system.mem_ctrls.wrQLenPdf::25                  65499                       # What write queue length does an incoming req see
system.mem_ctrls.wrQLenPdf::26                  65477                       # What write queue length does an incoming req see
system.mem_ctrls.wrQLenPdf::27                  65542                       # What write queue length does an incoming req see
system.mem_ctrls.wrQLenPdf::28                  65627                       # What write queue length does an incoming req see
system.mem_ctrls.wrQLenPdf::29                  65505                       # What write queue length does an incoming req see
system.mem_ctrls.wrQLenPdf::30                  65514                       # What write queue length does an incoming req see
system.mem_ctrls.wrQLenPdf::31                  65461                       # What write queue length does an incoming req see
system.mem_ctrls.wrQLenPdf::32                  65455                       # What write queue length does an incoming req see
system.mem_ctrls.wrQLenPdf::33                      2                       # What write queue length does an incoming req see
system.mem_ctrls.wrQLenPdf::34                      0                       # What write queue length does an incoming req see
system.mem_ctrls.wrQLenPdf::35                      0                       # What write queue length does an incoming req see
system.mem_ctrls.wrQLenPdf::36                      0                       # What write queue length does an incoming req see
system.mem_ctrls.wrQLenPdf::37                      0                       # What write queue length does an incoming req see
system.mem_ctrls.wrQLenPdf::38                      0                       # What write queue length does an incoming req see
system.mem_ctrls.wrQLenPdf::39                      0                       # What write queue length does an incoming req see
system.mem_ctrls.wrQLenPdf::40                      0                       # What write queue length does an incoming req see
system.mem_ctrls.wrQLenPdf::41                      0                       # What write queue length does an incoming req see
system.mem_ctrls.wrQLenPdf::42                      0                       # What write queue length does an incoming req see
system.mem_ctrls.wrQLenPdf::43                      0                       # What write queue length does an incoming req see
system.mem_ctrls.wrQLenPdf::44                      0                       # What write queue length does an incoming req see
system.mem_ctrls.wrQLenPdf::45                      0                       # What write queue length does an incoming req see
system.mem_ctrls.wrQLenPdf::46                      0                       # What write queue length does an incoming req see
system.mem_ctrls.wrQLenPdf::47                      0                       # What write queue length does an incoming req see
system.mem_ctrls.wrQLenPdf::48                      0                       # What write queue length does an incoming req see
system.mem_ctrls.wrQLenPdf::49                      0                       # What write queue length does an incoming req see
system.mem_ctrls.wrQLenPdf::50                      0                       # What write queue length does an incoming req see
system.mem_ctrls.wrQLenPdf::51                      0                       # What write queue length does an incoming req see
system.mem_ctrls.wrQLenPdf::52                      0                       # What write queue length does an incoming req see
system.mem_ctrls.wrQLenPdf::53                      0                       # What write queue length does an incoming req see
system.mem_ctrls.wrQLenPdf::54                      0                       # What write queue length does an incoming req see
system.mem_ctrls.wrQLenPdf::55                      0                       # What write queue length does an incoming req see
system.mem_ctrls.wrQLenPdf::56                      0                       # What write queue length does an incoming req see
system.mem_ctrls.wrQLenPdf::57                      0                       # What write queue length does an incoming req see
system.mem_ctrls.wrQLenPdf::58                      0                       # What write queue length does an incoming req see
system.mem_ctrls.wrQLenPdf::59                      0                       # What write queue length does an incoming req see
system.mem_ctrls.wrQLenPdf::60                      0                       # What write queue length does an incoming req see
system.mem_ctrls.wrQLenPdf::61                      0                       # What write queue length does an incoming req see
system.mem_ctrls.wrQLenPdf::62                      0                       # What write queue length does an incoming req see
system.mem_ctrls.wrQLenPdf::63                      0                       # What write queue length does an incoming req see
system.mem_ctrls.bytesPerActivate::samples      5886783                       # Bytes accessed per row activation
system.mem_ctrls.bytesPerActivate::mean     83.735275                       # Bytes accessed per row activation
system.mem_ctrls.bytesPerActivate::gmean    70.820115                       # Bytes accessed per row activation
system.mem_ctrls.bytesPerActivate::stdev   109.112157                       # Bytes accessed per row activation
system.mem_ctrls.bytesPerActivate::0-127      5373838     91.29%     91.29% # Bytes accessed per row activation
system.mem_ctrls.bytesPerActivate::128-255       375181      6.37%     97.66% # Bytes accessed per row activation
system.mem_ctrls.bytesPerActivate::256-383        31207      0.53%     98.19% # Bytes accessed per row activation
system.mem_ctrls.bytesPerActivate::384-511        13497      0.23%     98.42% # Bytes accessed per row activation
system.mem_ctrls.bytesPerActivate::512-639        10011      0.17%     98.59% # Bytes accessed per row activation
system.mem_ctrls.bytesPerActivate::640-767         9616      0.16%     98.75% # Bytes accessed per row activation
system.mem_ctrls.bytesPerActivate::768-895        12678      0.22%     98.97% # Bytes accessed per row activation
system.mem_ctrls.bytesPerActivate::896-1023         9038      0.15%     99.12% # Bytes accessed per row activation
system.mem_ctrls.bytesPerActivate::1024-1151        51717      0.88%    100.00% # Bytes accessed per row activation
system.mem_ctrls.bytesPerActivate::total      5886783                       # Bytes accessed per row activation
system.mem_ctrls.rdPerTurnAround::samples        65455                       # Reads before turning the bus around for writes
system.mem_ctrls.rdPerTurnAround::mean     100.621526                       # Reads before turning the bus around for writes
system.mem_ctrls.rdPerTurnAround::gmean     56.792006                       # Reads before turning the bus around for writes
system.mem_ctrls.rdPerTurnAround::stdev    146.902977                       # Reads before turning the bus around for writes
system.mem_ctrls.rdPerTurnAround::0-255         57621     88.03%     88.03% # Reads before turning the bus around for writes
system.mem_ctrls.rdPerTurnAround::256-511         7041     10.76%     98.79% # Reads before turning the bus around for writes
system.mem_ctrls.rdPerTurnAround::512-767          416      0.64%     99.42% # Reads before turning the bus around for writes
system.mem_ctrls.rdPerTurnAround::768-1023          177      0.27%     99.69% # Reads before turning the bus around for writes
system.mem_ctrls.rdPerTurnAround::1024-1279           91      0.14%     99.83% # Reads before turning the bus around for writes
system.mem_ctrls.rdPerTurnAround::1280-1535           47      0.07%     99.91% # Reads before turning the bus around for writes
system.mem_ctrls.rdPerTurnAround::1536-1791           20      0.03%     99.94% # Reads before turning the bus around for writes
system.mem_ctrls.rdPerTurnAround::1792-2047           13      0.02%     99.96% # Reads before turning the bus around for writes
system.mem_ctrls.rdPerTurnAround::2048-2303           11      0.02%     99.97% # Reads before turning the bus around for writes
system.mem_ctrls.rdPerTurnAround::2304-2559            6      0.01%     99.98% # Reads before turning the bus around for writes
system.mem_ctrls.rdPerTurnAround::2560-2815            5      0.01%     99.99% # Reads before turning the bus around for writes
system.mem_ctrls.rdPerTurnAround::3072-3327            3      0.00%     99.99% # Reads before turning the bus around for writes
system.mem_ctrls.rdPerTurnAround::3328-3583            1      0.00%    100.00% # Reads before turning the bus around for writes
system.mem_ctrls.rdPerTurnAround::3840-4095            1      0.00%    100.00% # Reads before turning the bus around for writes
system.mem_ctrls.rdPerTurnAround::4608-4863            1      0.00%    100.00% # Reads before turning the bus around for writes
system.mem_ctrls.rdPerTurnAround::5376-5631            1      0.00%    100.00% # Reads before turning the bus around for writes
system.mem_ctrls.rdPerTurnAround::total         65455                       # Reads before turning the bus around for writes
system.mem_ctrls.wrPerTurnAround::samples        65455                       # Writes before turning the bus around for reads
system.mem_ctrls.wrPerTurnAround::mean      17.047529                       # Writes before turning the bus around for reads
system.mem_ctrls.wrPerTurnAround::gmean     17.018213                       # Writes before turning the bus around for reads
system.mem_ctrls.wrPerTurnAround::stdev      0.998250                       # Writes before turning the bus around for reads
system.mem_ctrls.wrPerTurnAround::16            30676     46.87%     46.87% # Writes before turning the bus around for reads
system.mem_ctrls.wrPerTurnAround::17             1435      2.19%     49.06% # Writes before turning the bus around for reads
system.mem_ctrls.wrPerTurnAround::18            32913     50.28%     99.34% # Writes before turning the bus around for reads
system.mem_ctrls.wrPerTurnAround::19              419      0.64%     99.98% # Writes before turning the bus around for reads
system.mem_ctrls.wrPerTurnAround::20               12      0.02%    100.00% # Writes before turning the bus around for reads
system.mem_ctrls.wrPerTurnAround::total         65455                       # Writes before turning the bus around for reads
system.mem_ctrls.totQLat                 150819935750                       # Total ticks spent queuing
system.mem_ctrls.totMemAccLat            274311317000                       # Total ticks spent from burst creation until serviced by the DRAM
system.mem_ctrls.totBusLat                32931035000                       # Total ticks spent in databus transfers
system.mem_ctrls.avgQLat                     22899.36                       # Average queueing delay per DRAM burst
system.mem_ctrls.avgBusLat                    5000.00                       # Average bus latency per DRAM burst
system.mem_ctrls.avgMemAccLat                41649.36                       # Average memory access latency per DRAM burst
system.mem_ctrls.avgRdBW                       226.79                       # Average DRAM read bandwidth in MiByte/s
system.mem_ctrls.avgWrBW                        38.42                       # Average achieved write bandwidth in MiByte/s
system.mem_ctrls.avgRdBWSys                    227.21                       # Average system read bandwidth in MiByte/s
system.mem_ctrls.avgWrBWSys                     38.43                       # Average system write bandwidth in MiByte/s
system.mem_ctrls.peakBW                      12800.00                       # Theoretical peak bandwidth in MiByte/s
system.mem_ctrls.busUtil                         2.07                       # Data bus utilization in percentage
system.mem_ctrls.busUtilRead                     1.77                       # Data bus utilization in percentage for reads
system.mem_ctrls.busUtilWrite                    0.30                       # Data bus utilization in percentage for writes
system.mem_ctrls.avgRdQLen                       1.00                       # Average read queue length when enqueuing
system.mem_ctrls.avgWrQLen                      24.81                       # Average write queue length when enqueuing
system.mem_ctrls.readRowHits                  1316936                       # Number of row buffer hits during reads
system.mem_ctrls.writeRowHits                  498334                       # Number of row buffer hits during writes
system.mem_ctrls.readRowHitRate                 20.00                       # Row buffer hit rate for reads
system.mem_ctrls.writeRowHitRate                44.66                       # Row buffer hit rate for writes
system.mem_ctrls.avgGap                     240924.71                       # Average gap between requests
system.mem_ctrls.pageHitRate                    23.57                       # Row buffer hit rate, read and write combined
system.mem_ctrls_0.actEnergy              22304615760                       # Energy for activate commands per rank (pJ)
system.mem_ctrls_0.preEnergy              12170177250                       # Energy for precharge commands per rank (pJ)
system.mem_ctrls_0.readEnergy             25757175600                       # Energy for read commands per rank (pJ)
system.mem_ctrls_0.writeEnergy             3633517440                       # Energy for write commands per rank (pJ)
system.mem_ctrls_0.refreshEnergy         121393272000                       # Energy for refresh commands per rank (pJ)
system.mem_ctrls_0.actBackEnergy         895516298820                       # Energy for active background per rank (pJ)
system.mem_ctrls_0.preBackEnergy         329606259750                       # Energy for precharge background per rank (pJ)
system.mem_ctrls_0.totalEnergy           1410381316620                       # Total energy per rank (pJ)
system.mem_ctrls_0.averagePower            758.849628                       # Core power per rank (mW)
system.mem_ctrls_0.memoryStateTime::IDLE 542826382500                       # Time in different power states
system.mem_ctrls_0.memoryStateTime::REF   62062000000                       # Time in different power states
system.mem_ctrls_0.memoryStateTime::PRE_PDN            0                       # Time in different power states
system.mem_ctrls_0.memoryStateTime::ACT  1253689752500                       # Time in different power states
system.mem_ctrls_0.memoryStateTime::ACT_PDN            0                       # Time in different power states
system.mem_ctrls_1.actEnergy              22199463720                       # Energy for activate commands per rank (pJ)
system.mem_ctrls_1.preEnergy              12112802625                       # Energy for precharge commands per rank (pJ)
system.mem_ctrls_1.readEnergy             25615239000                       # Energy for read commands per rank (pJ)
system.mem_ctrls_1.writeEnergy             3597164640                       # Energy for write commands per rank (pJ)
system.mem_ctrls_1.refreshEnergy         121393272000                       # Energy for refresh commands per rank (pJ)
system.mem_ctrls_1.actBackEnergy         884773853955                       # Energy for active background per rank (pJ)
system.mem_ctrls_1.preBackEnergy         339029457000                       # Energy for precharge background per rank (pJ)
system.mem_ctrls_1.totalEnergy           1408721252940                       # Total energy per rank (pJ)
system.mem_ctrls_1.averagePower            757.956438                       # Core power per rank (mW)
system.mem_ctrls_1.memoryStateTime::IDLE 558216071500                       # Time in different power states
system.mem_ctrls_1.memoryStateTime::REF   62062000000                       # Time in different power states
system.mem_ctrls_1.memoryStateTime::PRE_PDN            0                       # Time in different power states
system.mem_ctrls_1.memoryStateTime::ACT  1238300063500                       # Time in different power states
system.mem_ctrls_1.memoryStateTime::ACT_PDN            0                       # Time in different power states
system.cpu_voltage_domain.voltage                   1                       # Voltage in Volts
system.cpu_clk_domain.clock                       500                       # Clock period in ticks
system.cpu.apic_clk_domain.clock                 8000                       # Clock period in ticks
system.cpu.workload.num_syscalls                  168                       # Number of system calls
system.cpu.numCycles                       3717168193                       # number of cpu cycles simulated
system.cpu.numWorkItemsStarted                      0                       # number of work items this cpu started
system.cpu.numWorkItemsCompleted                    0                       # number of work items this cpu completed
system.cpu.committedInsts                   500000000                       # Number of instructions committed
system.cpu.committedOps                     876313787                       # Number of ops (including micro ops) committed
system.cpu.num_int_alu_accesses             872966684                       # Number of integer alu accesses
system.cpu.num_fp_alu_accesses                2882231                       # Number of float alu accesses
system.cpu.num_func_calls                    11025254                       # number of times a function call or return occured
system.cpu.num_conditional_control_insts     75981010                       # number of instructions that are conditional controls
system.cpu.num_int_insts                    872966684                       # number of integer instructions
system.cpu.num_fp_insts                       2882231                       # number of float instructions
system.cpu.num_int_register_reads          1835046968                       # number of times the integer registers were read
system.cpu.num_int_register_writes          703076421                       # number of times the integer registers were written
system.cpu.num_fp_register_reads              4386063                       # number of times the floating registers were read
system.cpu.num_fp_register_writes             2464405                       # number of times the floating registers were written
system.cpu.num_cc_register_reads            441654672                       # number of times the CC registers were read
system.cpu.num_cc_register_writes           253505512                       # number of times the CC registers were written
system.cpu.num_mem_refs                     293763601                       # number of memory refs
system.cpu.num_load_insts                   221285044                       # Number of load instructions
system.cpu.num_store_insts                   72478557                       # Number of store instructions
system.cpu.num_idle_cycles                          0                       # Number of idle cycles
system.cpu.num_busy_cycles                 3717168193                       # Number of busy cycles
system.cpu.not_idle_fraction                        1                       # Percentage of non-idle cycles
system.cpu.idle_fraction                            0                       # Percentage of idle cycles
system.cpu.Branches                          97901002                       # Number of branches fetched
system.cpu.op_class::No_OpClass                939429      0.11%      0.11% # Class of executed instruction
system.cpu.op_class::IntAlu                 578420256     66.01%     66.11% # Class of executed instruction
system.cpu.op_class::IntMult                   907073      0.10%     66.22% # Class of executed instruction
system.cpu.op_class::IntDiv                        42      0.00%     66.22% # Class of executed instruction
system.cpu.op_class::FloatAdd                 2283386      0.26%     66.48% # Class of executed instruction
system.cpu.op_class::FloatCmp                       0      0.00%     66.48% # Class of executed instruction
system.cpu.op_class::FloatCvt                       0      0.00%     66.48% # Class of executed instruction
system.cpu.op_class::FloatMult                      0      0.00%     66.48% # Class of executed instruction
system.cpu.op_class::FloatDiv                       0      0.00%     66.48% # Class of executed instruction
system.cpu.op_class::FloatSqrt                      0      0.00%     66.48% # Class of executed instruction
system.cpu.op_class::SimdAdd                        0      0.00%     66.48% # Class of executed instruction
system.cpu.op_class::SimdAddAcc                     0      0.00%     66.48% # Class of executed instruction
system.cpu.op_class::SimdAlu                        0      0.00%     66.48% # Class of executed instruction
system.cpu.op_class::SimdCmp                        0      0.00%     66.48% # Class of executed instruction
system.cpu.op_class::SimdCvt                        0      0.00%     66.48% # Class of executed instruction
system.cpu.op_class::SimdMisc                       0      0.00%     66.48% # Class of executed instruction
system.cpu.op_class::SimdMult                       0      0.00%     66.48% # Class of executed instruction
system.cpu.op_class::SimdMultAcc                    0      0.00%     66.48% # Class of executed instruction
system.cpu.op_class::SimdShift                      0      0.00%     66.48% # Class of executed instruction
system.cpu.op_class::SimdShiftAcc                   0      0.00%     66.48% # Class of executed instruction
system.cpu.op_class::SimdSqrt                       0      0.00%     66.48% # Class of executed instruction
system.cpu.op_class::SimdFloatAdd                   0      0.00%     66.48% # Class of executed instruction
system.cpu.op_class::SimdFloatAlu                   0      0.00%     66.48% # Class of executed instruction
system.cpu.op_class::SimdFloatCmp                   0      0.00%     66.48% # Class of executed instruction
system.cpu.op_class::SimdFloatCvt                   0      0.00%     66.48% # Class of executed instruction
system.cpu.op_class::SimdFloatDiv                   0      0.00%     66.48% # Class of executed instruction
system.cpu.op_class::SimdFloatMisc                  0      0.00%     66.48% # Class of executed instruction
system.cpu.op_class::SimdFloatMult                  0      0.00%     66.48% # Class of executed instruction
system.cpu.op_class::SimdFloatMultAcc               0      0.00%     66.48% # Class of executed instruction
system.cpu.op_class::SimdFloatSqrt                  0      0.00%     66.48% # Class of executed instruction
system.cpu.op_class::MemRead                221285044     25.25%     91.73% # Class of executed instruction
system.cpu.op_class::MemWrite                72478557      8.27%    100.00% # Class of executed instruction
system.cpu.op_class::IprAccess                      0      0.00%    100.00% # Class of executed instruction
system.cpu.op_class::InstPrefetch                   0      0.00%    100.00% # Class of executed instruction
system.cpu.op_class::total                  876313787                       # Class of executed instruction
system.cpu.dcache.tags.replacements          10223913                       # number of replacements
system.cpu.dcache.tags.tagsinuse          2047.068729                       # Cycle average of tags in use
system.cpu.dcache.tags.total_refs           283551768                       # Total number of references to valid blocks.
system.cpu.dcache.tags.sampled_refs          10225961                       # Sample count of references to valid blocks.
system.cpu.dcache.tags.avg_refs             27.728618                       # Average number of references to valid blocks.
system.cpu.dcache.tags.warmup_cycle        1987130500                       # Cycle when the warmup percentage was hit.
system.cpu.dcache.tags.occ_blocks::cpu.data  2047.068729                       # Average occupied blocks per requestor
system.cpu.dcache.tags.occ_percent::cpu.data     0.999545                       # Average percentage of cache occupancy
system.cpu.dcache.tags.occ_percent::total     0.999545                       # Average percentage of cache occupancy
system.cpu.dcache.tags.occ_task_id_blocks::1024         2048                       # Occupied blocks per task id
system.cpu.dcache.tags.age_task_id_blocks_1024::0            2                       # Occupied blocks per task id
system.cpu.dcache.tags.age_task_id_blocks_1024::1          605                       # Occupied blocks per task id
system.cpu.dcache.tags.age_task_id_blocks_1024::2         1247                       # Occupied blocks per task id
system.cpu.dcache.tags.age_task_id_blocks_1024::3          191                       # Occupied blocks per task id
system.cpu.dcache.tags.age_task_id_blocks_1024::4            3                       # Occupied blocks per task id
system.cpu.dcache.tags.occ_task_id_percent::1024            1                       # Percentage of cache occupancy per task id
system.cpu.dcache.tags.tag_accesses         597781419                       # Number of tag accesses
system.cpu.dcache.tags.data_accesses        597781419                       # Number of data accesses
system.cpu.dcache.ReadReq_hits::cpu.data    211414955                       # number of ReadReq hits
system.cpu.dcache.ReadReq_hits::total       211414955                       # number of ReadReq hits
system.cpu.dcache.WriteReq_hits::cpu.data     72136813                       # number of WriteReq hits
system.cpu.dcache.WriteReq_hits::total       72136813                       # number of WriteReq hits
system.cpu.dcache.demand_hits::cpu.data     283551768                       # number of demand (read+write) hits
system.cpu.dcache.demand_hits::total        283551768                       # number of demand (read+write) hits
system.cpu.dcache.overall_hits::cpu.data    283551768                       # number of overall hits
system.cpu.dcache.overall_hits::total       283551768                       # number of overall hits
system.cpu.dcache.ReadReq_misses::cpu.data      9884216                       # number of ReadReq misses
system.cpu.dcache.ReadReq_misses::total       9884216                       # number of ReadReq misses
system.cpu.dcache.WriteReq_misses::cpu.data       341745                       # number of WriteReq misses
system.cpu.dcache.WriteReq_misses::total       341745                       # number of WriteReq misses
system.cpu.dcache.demand_misses::cpu.data     10225961                       # number of demand (read+write) misses
system.cpu.dcache.demand_misses::total       10225961                       # number of demand (read+write) misses
system.cpu.dcache.overall_misses::cpu.data     10225961                       # number of overall misses
system.cpu.dcache.overall_misses::total      10225961                       # number of overall misses
system.cpu.dcache.ReadReq_miss_latency::cpu.data 646402680000                       # number of ReadReq miss cycles
system.cpu.dcache.ReadReq_miss_latency::total 646402680000                       # number of ReadReq miss cycles
system.cpu.dcache.WriteReq_miss_latency::cpu.data  19535800500                       # number of WriteReq miss cycles
system.cpu.dcache.WriteReq_miss_latency::total  19535800500                       # number of WriteReq miss cycles
system.cpu.dcache.demand_miss_latency::cpu.data 665938480500                       # number of demand (read+write) miss cycles
system.cpu.dcache.demand_miss_latency::total 665938480500                       # number of demand (read+write) miss cycles
system.cpu.dcache.overall_miss_latency::cpu.data 665938480500                       # number of overall miss cycles
system.cpu.dcache.overall_miss_latency::total 665938480500                       # number of overall miss cycles
system.cpu.dcache.ReadReq_accesses::cpu.data    221299171                       # number of ReadReq accesses(hits+misses)
system.cpu.dcache.ReadReq_accesses::total    221299171                       # number of ReadReq accesses(hits+misses)
system.cpu.dcache.WriteReq_accesses::cpu.data     72478558                       # number of WriteReq accesses(hits+misses)
system.cpu.dcache.WriteReq_accesses::total     72478558                       # number of WriteReq accesses(hits+misses)
system.cpu.dcache.demand_accesses::cpu.data    293777729                       # number of demand (read+write) accesses
system.cpu.dcache.demand_accesses::total    293777729                       # number of demand (read+write) accesses
system.cpu.dcache.overall_accesses::cpu.data    293777729                       # number of overall (read+write) accesses
system.cpu.dcache.overall_accesses::total    293777729                       # number of overall (read+write) accesses
system.cpu.dcache.ReadReq_miss_rate::cpu.data     0.044664                       # miss rate for ReadReq accesses
system.cpu.dcache.ReadReq_miss_rate::total     0.044664                       # miss rate for ReadReq accesses
system.cpu.dcache.WriteReq_miss_rate::cpu.data     0.004715                       # miss rate for WriteReq accesses
system.cpu.dcache.WriteReq_miss_rate::total     0.004715                       # miss rate for WriteReq accesses
system.cpu.dcache.demand_miss_rate::cpu.data     0.034808                       # miss rate for demand accesses
system.cpu.dcache.demand_miss_rate::total     0.034808                       # miss rate for demand accesses
system.cpu.dcache.overall_miss_rate::cpu.data     0.034808                       # miss rate for overall accesses
system.cpu.dcache.overall_miss_rate::total     0.034808                       # miss rate for overall accesses
system.cpu.dcache.ReadReq_avg_miss_latency::cpu.data 65397.466021                       # average ReadReq miss latency
system.cpu.dcache.ReadReq_avg_miss_latency::total 65397.466021                       # average ReadReq miss latency
system.cpu.dcache.WriteReq_avg_miss_latency::cpu.data 57164.846596                       # average WriteReq miss latency
system.cpu.dcache.WriteReq_avg_miss_latency::total 57164.846596                       # average WriteReq miss latency
system.cpu.dcache.demand_avg_miss_latency::cpu.data 65122.337206                       # average overall miss latency
system.cpu.dcache.demand_avg_miss_latency::total 65122.337206                       # average overall miss latency
system.cpu.dcache.overall_avg_miss_latency::cpu.data 65122.337206                       # average overall miss latency
system.cpu.dcache.overall_avg_miss_latency::total 65122.337206                       # average overall miss latency
system.cpu.dcache.blocked_cycles::no_mshrs            0                       # number of cycles access was blocked
system.cpu.dcache.blocked_cycles::no_targets            0                       # number of cycles access was blocked
system.cpu.dcache.blocked::no_mshrs                 0                       # number of cycles access was blocked
system.cpu.dcache.blocked::no_targets               0                       # number of cycles access was blocked
system.cpu.dcache.avg_blocked_cycles::no_mshrs          nan                       # average number of cycles each access was blocked
system.cpu.dcache.avg_blocked_cycles::no_targets          nan                       # average number of cycles each access was blocked
system.cpu.dcache.fast_writes                       0                       # number of fast writes performed
system.cpu.dcache.cache_copies                      0                       # number of cache copies performed
system.cpu.dcache.writebacks::writebacks      2506266                       # number of writebacks
system.cpu.dcache.writebacks::total           2506266                       # number of writebacks
system.cpu.dcache.ReadReq_mshr_misses::cpu.data      9884216                       # number of ReadReq MSHR misses
system.cpu.dcache.ReadReq_mshr_misses::total      9884216                       # number of ReadReq MSHR misses
system.cpu.dcache.WriteReq_mshr_misses::cpu.data       341745                       # number of WriteReq MSHR misses
system.cpu.dcache.WriteReq_mshr_misses::total       341745                       # number of WriteReq MSHR misses
system.cpu.dcache.demand_mshr_misses::cpu.data     10225961                       # number of demand (read+write) MSHR misses
system.cpu.dcache.demand_mshr_misses::total     10225961                       # number of demand (read+write) MSHR misses
system.cpu.dcache.overall_mshr_misses::cpu.data     10225961                       # number of overall MSHR misses
system.cpu.dcache.overall_mshr_misses::total     10225961                       # number of overall MSHR misses
system.cpu.dcache.ReadReq_mshr_miss_latency::cpu.data 636518464000                       # number of ReadReq MSHR miss cycles
system.cpu.dcache.ReadReq_mshr_miss_latency::total 636518464000                       # number of ReadReq MSHR miss cycles
system.cpu.dcache.WriteReq_mshr_miss_latency::cpu.data  19194055500                       # number of WriteReq MSHR miss cycles
system.cpu.dcache.WriteReq_mshr_miss_latency::total  19194055500                       # number of WriteReq MSHR miss cycles
system.cpu.dcache.demand_mshr_miss_latency::cpu.data 655712519500                       # number of demand (read+write) MSHR miss cycles
system.cpu.dcache.demand_mshr_miss_latency::total 655712519500                       # number of demand (read+write) MSHR miss cycles
system.cpu.dcache.overall_mshr_miss_latency::cpu.data 655712519500                       # number of overall MSHR miss cycles
system.cpu.dcache.overall_mshr_miss_latency::total 655712519500                       # number of overall MSHR miss cycles
system.cpu.dcache.ReadReq_mshr_miss_rate::cpu.data     0.044664                       # mshr miss rate for ReadReq accesses
system.cpu.dcache.ReadReq_mshr_miss_rate::total     0.044664                       # mshr miss rate for ReadReq accesses
system.cpu.dcache.WriteReq_mshr_miss_rate::cpu.data     0.004715                       # mshr miss rate for WriteReq accesses
system.cpu.dcache.WriteReq_mshr_miss_rate::total     0.004715                       # mshr miss rate for WriteReq accesses
system.cpu.dcache.demand_mshr_miss_rate::cpu.data     0.034808                       # mshr miss rate for demand accesses
system.cpu.dcache.demand_mshr_miss_rate::total     0.034808                       # mshr miss rate for demand accesses
system.cpu.dcache.overall_mshr_miss_rate::cpu.data     0.034808                       # mshr miss rate for overall accesses
system.cpu.dcache.overall_mshr_miss_rate::total     0.034808                       # mshr miss rate for overall accesses
system.cpu.dcache.ReadReq_avg_mshr_miss_latency::cpu.data 64397.466021                       # average ReadReq mshr miss latency
system.cpu.dcache.ReadReq_avg_mshr_miss_latency::total 64397.466021                       # average ReadReq mshr miss latency
system.cpu.dcache.WriteReq_avg_mshr_miss_latency::cpu.data 56164.846596                       # average WriteReq mshr miss latency
system.cpu.dcache.WriteReq_avg_mshr_miss_latency::total 56164.846596                       # average WriteReq mshr miss latency
system.cpu.dcache.demand_avg_mshr_miss_latency::cpu.data 64122.337206                       # average overall mshr miss latency
system.cpu.dcache.demand_avg_mshr_miss_latency::total 64122.337206                       # average overall mshr miss latency
system.cpu.dcache.overall_avg_mshr_miss_latency::cpu.data 64122.337206                       # average overall mshr miss latency
system.cpu.dcache.overall_avg_mshr_miss_latency::total 64122.337206                       # average overall mshr miss latency
system.cpu.dcache.no_allocate_misses                0                       # Number of misses that were no-allocate
system.cpu.dtb_walker_cache.tags.replacements            0                       # number of replacements
system.cpu.dtb_walker_cache.tags.tagsinuse            0                       # Cycle average of tags in use
system.cpu.dtb_walker_cache.tags.total_refs            0                       # Total number of references to valid blocks.
system.cpu.dtb_walker_cache.tags.sampled_refs            0                       # Sample count of references to valid blocks.
system.cpu.dtb_walker_cache.tags.avg_refs          nan                       # Average number of references to valid blocks.
system.cpu.dtb_walker_cache.tags.warmup_cycle            0                       # Cycle when the warmup percentage was hit.
system.cpu.dtb_walker_cache.tags.tag_accesses            0                       # Number of tag accesses
system.cpu.dtb_walker_cache.tags.data_accesses            0                       # Number of data accesses
system.cpu.dtb_walker_cache.blocked_cycles::no_mshrs            0                       # number of cycles access was blocked
system.cpu.dtb_walker_cache.blocked_cycles::no_targets            0                       # number of cycles access was blocked
system.cpu.dtb_walker_cache.blocked::no_mshrs            0                       # number of cycles access was blocked
system.cpu.dtb_walker_cache.blocked::no_targets            0                       # number of cycles access was blocked
system.cpu.dtb_walker_cache.avg_blocked_cycles::no_mshrs          nan                       # average number of cycles each access was blocked
system.cpu.dtb_walker_cache.avg_blocked_cycles::no_targets          nan                       # average number of cycles each access was blocked
system.cpu.dtb_walker_cache.fast_writes             0                       # number of fast writes performed
system.cpu.dtb_walker_cache.cache_copies            0                       # number of cache copies performed
system.cpu.dtb_walker_cache.no_allocate_misses            0                       # Number of misses that were no-allocate
system.cpu.icache.tags.replacements          19100604                       # number of replacements
system.cpu.icache.tags.tagsinuse            15.999983                       # Cycle average of tags in use
system.cpu.icache.tags.total_refs           658217326                       # Total number of references to valid blocks.
system.cpu.icache.tags.sampled_refs          19100620                       # Sample count of references to valid blocks.
system.cpu.icache.tags.avg_refs             34.460521                       # Average number of references to valid blocks.
system.cpu.icache.tags.warmup_cycle           4367500                       # Cycle when the warmup percentage was hit.
system.cpu.icache.tags.occ_blocks::cpu.inst    15.999983                       # Average occupied blocks per requestor
system.cpu.icache.tags.occ_percent::cpu.inst     0.999999                       # Average percentage of cache occupancy
system.cpu.icache.tags.occ_percent::total     0.999999                       # Average percentage of cache occupancy
system.cpu.icache.tags.occ_task_id_blocks::1024           16                       # Occupied blocks per task id
system.cpu.icache.tags.age_task_id_blocks_1024::1           16                       # Occupied blocks per task id
system.cpu.icache.tags.occ_task_id_percent::1024            1                       # Percentage of cache occupancy per task id
system.cpu.icache.tags.tag_accesses        1373736512                       # Number of tag accesses
system.cpu.icache.tags.data_accesses       1373736512                       # Number of data accesses
system.cpu.icache.ReadReq_hits::cpu.inst    658217326                       # number of ReadReq hits
system.cpu.icache.ReadReq_hits::total       658217326                       # number of ReadReq hits
system.cpu.icache.demand_hits::cpu.inst     658217326                       # number of demand (read+write) hits
system.cpu.icache.demand_hits::total        658217326                       # number of demand (read+write) hits
system.cpu.icache.overall_hits::cpu.inst    658217326                       # number of overall hits
system.cpu.icache.overall_hits::total       658217326                       # number of overall hits
system.cpu.icache.ReadReq_misses::cpu.inst     19100620                       # number of ReadReq misses
system.cpu.icache.ReadReq_misses::total      19100620                       # number of ReadReq misses
system.cpu.icache.demand_misses::cpu.inst     19100620                       # number of demand (read+write) misses
system.cpu.icache.demand_misses::total       19100620                       # number of demand (read+write) misses
system.cpu.icache.overall_misses::cpu.inst     19100620                       # number of overall misses
system.cpu.icache.overall_misses::total      19100620                       # number of overall misses
system.cpu.icache.ReadReq_miss_latency::cpu.inst 250883588500                       # number of ReadReq miss cycles
system.cpu.icache.ReadReq_miss_latency::total 250883588500                       # number of ReadReq miss cycles
system.cpu.icache.demand_miss_latency::cpu.inst 250883588500                       # number of demand (read+write) miss cycles
system.cpu.icache.demand_miss_latency::total 250883588500                       # number of demand (read+write) miss cycles
system.cpu.icache.overall_miss_latency::cpu.inst 250883588500                       # number of overall miss cycles
system.cpu.icache.overall_miss_latency::total 250883588500                       # number of overall miss cycles
system.cpu.icache.ReadReq_accesses::cpu.inst    677317946                       # number of ReadReq accesses(hits+misses)
system.cpu.icache.ReadReq_accesses::total    677317946                       # number of ReadReq accesses(hits+misses)
system.cpu.icache.demand_accesses::cpu.inst    677317946                       # number of demand (read+write) accesses
system.cpu.icache.demand_accesses::total    677317946                       # number of demand (read+write) accesses
system.cpu.icache.overall_accesses::cpu.inst    677317946                       # number of overall (read+write) accesses
system.cpu.icache.overall_accesses::total    677317946                       # number of overall (read+write) accesses
system.cpu.icache.ReadReq_miss_rate::cpu.inst     0.028200                       # miss rate for ReadReq accesses
system.cpu.icache.ReadReq_miss_rate::total     0.028200                       # miss rate for ReadReq accesses
system.cpu.icache.demand_miss_rate::cpu.inst     0.028200                       # miss rate for demand accesses
system.cpu.icache.demand_miss_rate::total     0.028200                       # miss rate for demand accesses
system.cpu.icache.overall_miss_rate::cpu.inst     0.028200                       # miss rate for overall accesses
system.cpu.icache.overall_miss_rate::total     0.028200                       # miss rate for overall accesses
system.cpu.icache.ReadReq_avg_miss_latency::cpu.inst 13134.840047                       # average ReadReq miss latency
system.cpu.icache.ReadReq_avg_miss_latency::total 13134.840047                       # average ReadReq miss latency
system.cpu.icache.demand_avg_miss_latency::cpu.inst 13134.840047                       # average overall miss latency
system.cpu.icache.demand_avg_miss_latency::total 13134.840047                       # average overall miss latency
system.cpu.icache.overall_avg_miss_latency::cpu.inst 13134.840047                       # average overall miss latency
system.cpu.icache.overall_avg_miss_latency::total 13134.840047                       # average overall miss latency
system.cpu.icache.blocked_cycles::no_mshrs            0                       # number of cycles access was blocked
system.cpu.icache.blocked_cycles::no_targets            0                       # number of cycles access was blocked
system.cpu.icache.blocked::no_mshrs                 0                       # number of cycles access was blocked
system.cpu.icache.blocked::no_targets               0                       # number of cycles access was blocked
system.cpu.icache.avg_blocked_cycles::no_mshrs          nan                       # average number of cycles each access was blocked
system.cpu.icache.avg_blocked_cycles::no_targets          nan                       # average number of cycles each access was blocked
system.cpu.icache.fast_writes                       0                       # number of fast writes performed
system.cpu.icache.cache_copies                      0                       # number of cache copies performed
system.cpu.icache.writebacks::writebacks     19100604                       # number of writebacks
system.cpu.icache.writebacks::total          19100604                       # number of writebacks
system.cpu.icache.ReadReq_mshr_misses::cpu.inst     19100620                       # number of ReadReq MSHR misses
system.cpu.icache.ReadReq_mshr_misses::total     19100620                       # number of ReadReq MSHR misses
system.cpu.icache.demand_mshr_misses::cpu.inst     19100620                       # number of demand (read+write) MSHR misses
system.cpu.icache.demand_mshr_misses::total     19100620                       # number of demand (read+write) MSHR misses
system.cpu.icache.overall_mshr_misses::cpu.inst     19100620                       # number of overall MSHR misses
system.cpu.icache.overall_mshr_misses::total     19100620                       # number of overall MSHR misses
system.cpu.icache.ReadReq_mshr_miss_latency::cpu.inst 231782968500                       # number of ReadReq MSHR miss cycles
system.cpu.icache.ReadReq_mshr_miss_latency::total 231782968500                       # number of ReadReq MSHR miss cycles
system.cpu.icache.demand_mshr_miss_latency::cpu.inst 231782968500                       # number of demand (read+write) MSHR miss cycles
system.cpu.icache.demand_mshr_miss_latency::total 231782968500                       # number of demand (read+write) MSHR miss cycles
system.cpu.icache.overall_mshr_miss_latency::cpu.inst 231782968500                       # number of overall MSHR miss cycles
system.cpu.icache.overall_mshr_miss_latency::total 231782968500                       # number of overall MSHR miss cycles
system.cpu.icache.ReadReq_mshr_miss_rate::cpu.inst     0.028200                       # mshr miss rate for ReadReq accesses
system.cpu.icache.ReadReq_mshr_miss_rate::total     0.028200                       # mshr miss rate for ReadReq accesses
system.cpu.icache.demand_mshr_miss_rate::cpu.inst     0.028200                       # mshr miss rate for demand accesses
system.cpu.icache.demand_mshr_miss_rate::total     0.028200                       # mshr miss rate for demand accesses
system.cpu.icache.overall_mshr_miss_rate::cpu.inst     0.028200                       # mshr miss rate for overall accesses
system.cpu.icache.overall_mshr_miss_rate::total     0.028200                       # mshr miss rate for overall accesses
system.cpu.icache.ReadReq_avg_mshr_miss_latency::cpu.inst 12134.840047                       # average ReadReq mshr miss latency
system.cpu.icache.ReadReq_avg_mshr_miss_latency::total 12134.840047                       # average ReadReq mshr miss latency
system.cpu.icache.demand_avg_mshr_miss_latency::cpu.inst 12134.840047                       # average overall mshr miss latency
system.cpu.icache.demand_avg_mshr_miss_latency::total 12134.840047                       # average overall mshr miss latency
system.cpu.icache.overall_avg_mshr_miss_latency::cpu.inst 12134.840047                       # average overall mshr miss latency
system.cpu.icache.overall_avg_mshr_miss_latency::total 12134.840047                       # average overall mshr miss latency
system.cpu.icache.no_allocate_misses                0                       # Number of misses that were no-allocate
system.cpu.itb_walker_cache.tags.replacements            0                       # number of replacements
system.cpu.itb_walker_cache.tags.tagsinuse            0                       # Cycle average of tags in use
system.cpu.itb_walker_cache.tags.total_refs            0                       # Total number of references to valid blocks.
system.cpu.itb_walker_cache.tags.sampled_refs            0                       # Sample count of references to valid blocks.
system.cpu.itb_walker_cache.tags.avg_refs          nan                       # Average number of references to valid blocks.
system.cpu.itb_walker_cache.tags.warmup_cycle            0                       # Cycle when the warmup percentage was hit.
system.cpu.itb_walker_cache.tags.tag_accesses            0                       # Number of tag accesses
system.cpu.itb_walker_cache.tags.data_accesses            0                       # Number of data accesses
system.cpu.itb_walker_cache.blocked_cycles::no_mshrs            0                       # number of cycles access was blocked
system.cpu.itb_walker_cache.blocked_cycles::no_targets            0                       # number of cycles access was blocked
system.cpu.itb_walker_cache.blocked::no_mshrs            0                       # number of cycles access was blocked
system.cpu.itb_walker_cache.blocked::no_targets            0                       # number of cycles access was blocked
system.cpu.itb_walker_cache.avg_blocked_cycles::no_mshrs          nan                       # average number of cycles each access was blocked
system.cpu.itb_walker_cache.avg_blocked_cycles::no_targets          nan                       # average number of cycles each access was blocked
system.cpu.itb_walker_cache.fast_writes             0                       # number of fast writes performed
system.cpu.itb_walker_cache.cache_copies            0                       # number of cache copies performed
system.cpu.itb_walker_cache.no_allocate_misses            0                       # Number of misses that were no-allocate
system.l2.tags.replacements                   6777585                       # number of replacements
system.l2.tags.tagsinuse                 15834.964323                       # Cycle average of tags in use
system.l2.tags.total_refs                    50773378                       # Total number of references to valid blocks.
system.l2.tags.sampled_refs                   6793912                       # Sample count of references to valid blocks.
system.l2.tags.avg_refs                      7.473364                       # Average number of references to valid blocks.
system.l2.tags.warmup_cycle              552716167500                       # Cycle when the warmup percentage was hit.
system.l2.tags.occ_blocks::writebacks     4441.403947                       # Average occupied blocks per requestor
system.l2.tags.occ_blocks::cpu.inst         59.106881                       # Average occupied blocks per requestor
system.l2.tags.occ_blocks::cpu.data      11334.453495                       # Average occupied blocks per requestor
system.l2.tags.occ_percent::writebacks       0.271082                       # Average percentage of cache occupancy
system.l2.tags.occ_percent::cpu.inst         0.003608                       # Average percentage of cache occupancy
system.l2.tags.occ_percent::cpu.data         0.691800                       # Average percentage of cache occupancy
system.l2.tags.occ_percent::total            0.966490                       # Average percentage of cache occupancy
system.l2.tags.occ_task_id_blocks::1024         16327                       # Occupied blocks per task id
system.l2.tags.age_task_id_blocks_1024::0            1                       # Occupied blocks per task id
system.l2.tags.age_task_id_blocks_1024::1          405                       # Occupied blocks per task id
system.l2.tags.age_task_id_blocks_1024::2         3324                       # Occupied blocks per task id
system.l2.tags.age_task_id_blocks_1024::3         9610                       # Occupied blocks per task id
system.l2.tags.age_task_id_blocks_1024::4         2987                       # Occupied blocks per task id
system.l2.tags.occ_task_id_percent::1024     0.996521                       # Percentage of cache occupancy per task id
system.l2.tags.tag_accesses                  65786754                       # Number of tag accesses
system.l2.tags.data_accesses                 65786754                       # Number of data accesses
system.l2.WritebackDirty_hits::writebacks      2506266                       # number of WritebackDirty hits
system.l2.WritebackDirty_hits::total          2506266                       # number of WritebackDirty hits
system.l2.WritebackClean_hits::writebacks     19100603                       # number of WritebackClean hits
system.l2.WritebackClean_hits::total         19100603                       # number of WritebackClean hits
system.l2.ReadExReq_hits::cpu.data             132047                       # number of ReadExReq hits
system.l2.ReadExReq_hits::total                132047                       # number of ReadExReq hits
system.l2.ReadCleanReq_hits::cpu.inst        19068359                       # number of ReadCleanReq hits
system.l2.ReadCleanReq_hits::total           19068359                       # number of ReadCleanReq hits
system.l2.ReadSharedReq_hits::cpu.data        3527788                       # number of ReadSharedReq hits
system.l2.ReadSharedReq_hits::total           3527788                       # number of ReadSharedReq hits
system.l2.demand_hits::cpu.inst              19068359                       # number of demand (read+write) hits
system.l2.demand_hits::cpu.data               3659835                       # number of demand (read+write) hits
system.l2.demand_hits::total                 22728194                       # number of demand (read+write) hits
system.l2.overall_hits::cpu.inst             19068359                       # number of overall hits
system.l2.overall_hits::cpu.data              3659835                       # number of overall hits
system.l2.overall_hits::total                22728194                       # number of overall hits
system.l2.ReadExReq_misses::cpu.data           209698                       # number of ReadExReq misses
system.l2.ReadExReq_misses::total              209698                       # number of ReadExReq misses
system.l2.ReadCleanReq_misses::cpu.inst         32261                       # number of ReadCleanReq misses
system.l2.ReadCleanReq_misses::total            32261                       # number of ReadCleanReq misses
system.l2.ReadSharedReq_misses::cpu.data      6356428                       # number of ReadSharedReq misses
system.l2.ReadSharedReq_misses::total         6356428                       # number of ReadSharedReq misses
system.l2.demand_misses::cpu.inst               32261                       # number of demand (read+write) misses
system.l2.demand_misses::cpu.data             6566126                       # number of demand (read+write) misses
system.l2.demand_misses::total                6598387                       # number of demand (read+write) misses
system.l2.overall_misses::cpu.inst              32261                       # number of overall misses
system.l2.overall_misses::cpu.data            6566126                       # number of overall misses
system.l2.overall_misses::total               6598387                       # number of overall misses
system.l2.ReadExReq_miss_latency::cpu.data  17286186000                       # number of ReadExReq miss cycles
system.l2.ReadExReq_miss_latency::total   17286186000                       # number of ReadExReq miss cycles
system.l2.ReadCleanReq_miss_latency::cpu.inst   2756640000                       # number of ReadCleanReq miss cycles
system.l2.ReadCleanReq_miss_latency::total   2756640000                       # number of ReadCleanReq miss cycles
system.l2.ReadSharedReq_miss_latency::cpu.data 584648647000                       # number of ReadSharedReq miss cycles
system.l2.ReadSharedReq_miss_latency::total 584648647000                       # number of ReadSharedReq miss cycles
system.l2.demand_miss_latency::cpu.inst    2756640000                       # number of demand (read+write) miss cycles
system.l2.demand_miss_latency::cpu.data  601934833000                       # number of demand (read+write) miss cycles
system.l2.demand_miss_latency::total     604691473000                       # number of demand (read+write) miss cycles
system.l2.overall_miss_latency::cpu.inst   2756640000                       # number of overall miss cycles
system.l2.overall_miss_latency::cpu.data 601934833000                       # number of overall miss cycles
system.l2.overall_miss_latency::total    604691473000                       # number of overall miss cycles
system.l2.WritebackDirty_accesses::writebacks      2506266                       # number of WritebackDirty accesses(hits+misses)
system.l2.WritebackDirty_accesses::total      2506266                       # number of WritebackDirty accesses(hits+misses)
system.l2.WritebackClean_accesses::writebacks     19100603                       # number of WritebackClean accesses(hits+misses)
system.l2.WritebackClean_accesses::total     19100603                       # number of WritebackClean accesses(hits+misses)
system.l2.ReadExReq_accesses::cpu.data         341745                       # number of ReadExReq accesses(hits+misses)
system.l2.ReadExReq_accesses::total            341745                       # number of ReadExReq accesses(hits+misses)
system.l2.ReadCleanReq_accesses::cpu.inst     19100620                       # number of ReadCleanReq accesses(hits+misses)
system.l2.ReadCleanReq_accesses::total       19100620                       # number of ReadCleanReq accesses(hits+misses)
system.l2.ReadSharedReq_accesses::cpu.data      9884216                       # number of ReadSharedReq accesses(hits+misses)
system.l2.ReadSharedReq_accesses::total       9884216                       # number of ReadSharedReq accesses(hits+misses)
system.l2.demand_accesses::cpu.inst          19100620                       # number of demand (read+write) accesses
system.l2.demand_accesses::cpu.data          10225961                       # number of demand (read+write) accesses
system.l2.demand_accesses::total             29326581                       # number of demand (read+write) accesses
system.l2.overall_accesses::cpu.inst         19100620                       # number of overall (read+write) accesses
system.l2.overall_accesses::cpu.data         10225961                       # number of overall (read+write) accesses
system.l2.overall_accesses::total            29326581                       # number of overall (read+write) accesses
system.l2.ReadExReq_miss_rate::cpu.data      0.613610                       # miss rate for ReadExReq accesses
system.l2.ReadExReq_miss_rate::total         0.613610                       # miss rate for ReadExReq accesses
system.l2.ReadCleanReq_miss_rate::cpu.inst     0.001689                       # miss rate for ReadCleanReq accesses
system.l2.ReadCleanReq_miss_rate::total      0.001689                       # miss rate for ReadCleanReq accesses
system.l2.ReadSharedReq_miss_rate::cpu.data     0.643089                       # miss rate for ReadSharedReq accesses
system.l2.ReadSharedReq_miss_rate::total     0.643089                       # miss rate for ReadSharedReq accesses
system.l2.demand_miss_rate::cpu.inst         0.001689                       # miss rate for demand accesses
system.l2.demand_miss_rate::cpu.data         0.642104                       # miss rate for demand accesses
system.l2.demand_miss_rate::total            0.224997                       # miss rate for demand accesses
system.l2.overall_miss_rate::cpu.inst        0.001689                       # miss rate for overall accesses
system.l2.overall_miss_rate::cpu.data        0.642104                       # miss rate for overall accesses
system.l2.overall_miss_rate::total           0.224997                       # miss rate for overall accesses
system.l2.ReadExReq_avg_miss_latency::cpu.data 82433.718967                       # average ReadExReq miss latency
system.l2.ReadExReq_avg_miss_latency::total 82433.718967                       # average ReadExReq miss latency
system.l2.ReadCleanReq_avg_miss_latency::cpu.inst 85448.064226                       # average ReadCleanReq miss latency
system.l2.ReadCleanReq_avg_miss_latency::total 85448.064226                       # average ReadCleanReq miss latency
system.l2.ReadSharedReq_avg_miss_latency::cpu.data 91977.545722                       # average ReadSharedReq miss latency
system.l2.ReadSharedReq_avg_miss_latency::total 91977.545722                       # average ReadSharedReq miss latency
system.l2.demand_avg_miss_latency::cpu.inst 85448.064226                       # average overall miss latency
system.l2.demand_avg_miss_latency::cpu.data 91672.750873                       # average overall miss latency
system.l2.demand_avg_miss_latency::total 91642.316978                       # average overall miss latency
system.l2.overall_avg_miss_latency::cpu.inst 85448.064226                       # average overall miss latency
system.l2.overall_avg_miss_latency::cpu.data 91672.750873                       # average overall miss latency
system.l2.overall_avg_miss_latency::total 91642.316978                       # average overall miss latency
system.l2.blocked_cycles::no_mshrs                  0                       # number of cycles access was blocked
system.l2.blocked_cycles::no_targets                0                       # number of cycles access was blocked
system.l2.blocked::no_mshrs                         0                       # number of cycles access was blocked
system.l2.blocked::no_targets                       0                       # number of cycles access was blocked
system.l2.avg_blocked_cycles::no_mshrs            nan                       # average number of cycles each access was blocked
system.l2.avg_blocked_cycles::no_targets          nan                       # average number of cycles each access was blocked
system.l2.fast_writes                               0                       # number of fast writes performed
system.l2.cache_copies                              0                       # number of cache copies performed
system.l2.writebacks::writebacks              1115922                       # number of writebacks
system.l2.writebacks::total                   1115922                       # number of writebacks
system.l2.CleanEvict_mshr_misses::writebacks       741776                       # number of CleanEvict MSHR misses
system.l2.CleanEvict_mshr_misses::total        741776                       # number of CleanEvict MSHR misses
system.l2.ReadExReq_mshr_misses::cpu.data       209698                       # number of ReadExReq MSHR misses
system.l2.ReadExReq_mshr_misses::total         209698                       # number of ReadExReq MSHR misses
system.l2.ReadCleanReq_mshr_misses::cpu.inst        32261                       # number of ReadCleanReq MSHR misses
system.l2.ReadCleanReq_mshr_misses::total        32261                       # number of ReadCleanReq MSHR misses
system.l2.ReadSharedReq_mshr_misses::cpu.data      6356428                       # number of ReadSharedReq MSHR misses
system.l2.ReadSharedReq_mshr_misses::total      6356428                       # number of ReadSharedReq MSHR misses
system.l2.demand_mshr_misses::cpu.inst          32261                       # number of demand (read+write) MSHR misses
system.l2.demand_mshr_misses::cpu.data        6566126                       # number of demand (read+write) MSHR misses
system.l2.demand_mshr_misses::total           6598387                       # number of demand (read+write) MSHR misses
system.l2.overall_mshr_misses::cpu.inst         32261                       # number of overall MSHR misses
system.l2.overall_mshr_misses::cpu.data       6566126                       # number of overall MSHR misses
system.l2.overall_mshr_misses::total          6598387                       # number of overall MSHR misses
system.l2.ReadExReq_mshr_miss_latency::cpu.data  15189206000                       # number of ReadExReq MSHR miss cycles
system.l2.ReadExReq_mshr_miss_latency::total  15189206000                       # number of ReadExReq MSHR miss cycles
system.l2.ReadCleanReq_mshr_miss_latency::cpu.inst   2434030000                       # number of ReadCleanReq MSHR miss cycles
system.l2.ReadCleanReq_mshr_miss_latency::total   2434030000                       # number of ReadCleanReq MSHR miss cycles
system.l2.ReadSharedReq_mshr_miss_latency::cpu.data 521084367000                       # number of ReadSharedReq MSHR miss cycles
system.l2.ReadSharedReq_mshr_miss_latency::total 521084367000                       # number of ReadSharedReq MSHR miss cycles
system.l2.demand_mshr_miss_latency::cpu.inst   2434030000                       # number of demand (read+write) MSHR miss cycles
system.l2.demand_mshr_miss_latency::cpu.data 536273573000                       # number of demand (read+write) MSHR miss cycles
system.l2.demand_mshr_miss_latency::total 538707603000                       # number of demand (read+write) MSHR miss cycles
system.l2.overall_mshr_miss_latency::cpu.inst   2434030000                       # number of overall MSHR miss cycles
system.l2.overall_mshr_miss_latency::cpu.data 536273573000                       # number of overall MSHR miss cycles
system.l2.overall_mshr_miss_latency::total 538707603000                       # number of overall MSHR miss cycles
system.l2.CleanEvict_mshr_miss_rate::writebacks          inf                       # mshr miss rate for CleanEvict accesses
system.l2.CleanEvict_mshr_miss_rate::total          inf                       # mshr miss rate for CleanEvict accesses
system.l2.ReadExReq_mshr_miss_rate::cpu.data     0.613610                       # mshr miss rate for ReadExReq accesses
system.l2.ReadExReq_mshr_miss_rate::total     0.613610                       # mshr miss rate for ReadExReq accesses
system.l2.ReadCleanReq_mshr_miss_rate::cpu.inst     0.001689                       # mshr miss rate for ReadCleanReq accesses
system.l2.ReadCleanReq_mshr_miss_rate::total     0.001689                       # mshr miss rate for ReadCleanReq accesses
system.l2.ReadSharedReq_mshr_miss_rate::cpu.data     0.643089                       # mshr miss rate for ReadSharedReq accesses
system.l2.ReadSharedReq_mshr_miss_rate::total     0.643089                       # mshr miss rate for ReadSharedReq accesses
system.l2.demand_mshr_miss_rate::cpu.inst     0.001689                       # mshr miss rate for demand accesses
system.l2.demand_mshr_miss_rate::cpu.data     0.642104                       # mshr miss rate for demand accesses
system.l2.demand_mshr_miss_rate::total       0.224997                       # mshr miss rate for demand accesses
system.l2.overall_mshr_miss_rate::cpu.inst     0.001689                       # mshr miss rate for overall accesses
system.l2.overall_mshr_miss_rate::cpu.data     0.642104                       # mshr miss rate for overall accesses
system.l2.overall_mshr_miss_rate::total      0.224997                       # mshr miss rate for overall accesses
system.l2.ReadExReq_avg_mshr_miss_latency::cpu.data 72433.718967                       # average ReadExReq mshr miss latency
system.l2.ReadExReq_avg_mshr_miss_latency::total 72433.718967                       # average ReadExReq mshr miss latency
system.l2.ReadCleanReq_avg_mshr_miss_latency::cpu.inst 75448.064226                       # average ReadCleanReq mshr miss latency
system.l2.ReadCleanReq_avg_mshr_miss_latency::total 75448.064226                       # average ReadCleanReq mshr miss latency
system.l2.ReadSharedReq_avg_mshr_miss_latency::cpu.data 81977.545722                       # average ReadSharedReq mshr miss latency
system.l2.ReadSharedReq_avg_mshr_miss_latency::total 81977.545722                       # average ReadSharedReq mshr miss latency
system.l2.demand_avg_mshr_miss_latency::cpu.inst 75448.064226                       # average overall mshr miss latency
system.l2.demand_avg_mshr_miss_latency::cpu.data 81672.750873                       # average overall mshr miss latency
system.l2.demand_avg_mshr_miss_latency::total 81642.316978                       # average overall mshr miss latency
system.l2.overall_avg_mshr_miss_latency::cpu.inst 75448.064226                       # average overall mshr miss latency
system.l2.overall_avg_mshr_miss_latency::cpu.data 81672.750873                       # average overall mshr miss latency
system.l2.overall_avg_mshr_miss_latency::total 81642.316978                       # average overall mshr miss latency
system.l2.no_allocate_misses                        0                       # Number of misses that were no-allocate
system.membus.trans_dist::ReadResp            6388689                       # Transaction distribution
system.membus.trans_dist::WritebackDirty      1115922                       # Transaction distribution
system.membus.trans_dist::CleanEvict          5465996                       # Transaction distribution
system.membus.trans_dist::ReadExReq            209698                       # Transaction distribution
system.membus.trans_dist::ReadExResp           209698                       # Transaction distribution
system.membus.trans_dist::ReadSharedReq       6388689                       # Transaction distribution
system.membus.pkt_count_system.l2.mem_side::system.mem_ctrls.port     19778692                       # Packet count per connected master and slave (bytes)
system.membus.pkt_count_system.l2.mem_side::total     19778692                       # Packet count per connected master and slave (bytes)
system.membus.pkt_count::total               19778692                       # Packet count per connected master and slave (bytes)
system.membus.pkt_size_system.l2.mem_side::system.mem_ctrls.port    493715776                       # Cumulative packet size per connected master and slave (bytes)
system.membus.pkt_size_system.l2.mem_side::total    493715776                       # Cumulative packet size per connected master and slave (bytes)
system.membus.pkt_size::total               493715776                       # Cumulative packet size per connected master and slave (bytes)
system.membus.snoops                                0                       # Total snoops (count)
system.membus.snoop_fanout::samples          13180305                       # Request fanout histogram
system.membus.snoop_fanout::mean                    0                       # Request fanout histogram
system.membus.snoop_fanout::stdev                   0                       # Request fanout histogram
system.membus.snoop_fanout::underflows              0      0.00%      0.00% # Request fanout histogram
system.membus.snoop_fanout::0                13180305    100.00%    100.00% # Request fanout histogram
system.membus.snoop_fanout::1                       0      0.00%    100.00% # Request fanout histogram
system.membus.snoop_fanout::overflows               0      0.00%    100.00% # Request fanout histogram
system.membus.snoop_fanout::min_value               0                       # Request fanout histogram
system.membus.snoop_fanout::max_value               0                       # Request fanout histogram
system.membus.snoop_fanout::total            13180305                       # Request fanout histogram
system.membus.reqLayer2.occupancy         17701306000                       # Layer occupancy (ticks)
system.membus.reqLayer2.utilization               1.0                       # Layer utilization (%)
system.membus.respLayer1.occupancy        36817913000                       # Layer occupancy (ticks)
system.membus.respLayer1.utilization              2.0                       # Layer utilization (%)
system.tol2bus.snoop_filter.tot_requests     58651098                       # Total number of requests made to the snoop filter.
system.tol2bus.snoop_filter.hit_single_requests     29324517                       # Number of requests hitting in the snoop filter with a single holder of the requested data.
system.tol2bus.snoop_filter.hit_multi_requests            1                       # Number of requests hitting in the snoop filter with multiple (>1) holders of the requested data.
system.tol2bus.snoop_filter.tot_snoops         937443                       # Total number of snoops made to the snoop filter.
system.tol2bus.snoop_filter.hit_single_snoops       937443                       # Number of snoops hitting in the snoop filter with a single holder of the requested data.
system.tol2bus.snoop_filter.hit_multi_snoops            0                       # Number of snoops hitting in the snoop filter with multiple (>1) holders of the requested data.
system.tol2bus.trans_dist::ReadResp          28984836                       # Transaction distribution
system.tol2bus.trans_dist::WritebackDirty      3622188                       # Transaction distribution
system.tol2bus.trans_dist::WritebackClean     19100603                       # Transaction distribution
system.tol2bus.trans_dist::CleanEvict        13379310                       # Transaction distribution
system.tol2bus.trans_dist::ReadExReq           341745                       # Transaction distribution
system.tol2bus.trans_dist::ReadExResp          341745                       # Transaction distribution
system.tol2bus.trans_dist::ReadCleanReq      19100620                       # Transaction distribution
system.tol2bus.trans_dist::ReadSharedReq      9884216                       # Transaction distribution
system.tol2bus.pkt_count_system.cpu.icache.mem_side::system.l2.cpu_side     57301843                       # Packet count per connected master and slave (bytes)
system.tol2bus.pkt_count_system.cpu.dcache.mem_side::system.l2.cpu_side     30675835                       # Packet count per connected master and slave (bytes)
system.tol2bus.pkt_count::total              87977678                       # Packet count per connected master and slave (bytes)
system.tol2bus.pkt_size_system.cpu.icache.mem_side::system.l2.cpu_side   2444878272                       # Cumulative packet size per connected master and slave (bytes)
system.tol2bus.pkt_size_system.cpu.dcache.mem_side::system.l2.cpu_side    814862528                       # Cumulative packet size per connected master and slave (bytes)
system.tol2bus.pkt_size::total             3259740800                       # Cumulative packet size per connected master and slave (bytes)
system.tol2bus.snoops                         6777585                       # Total snoops (count)
system.tol2bus.snoop_fanout::samples         36104166                       # Request fanout histogram
system.tol2bus.snoop_fanout::mean            0.025965                       # Request fanout histogram
system.tol2bus.snoop_fanout::stdev           0.159031                       # Request fanout histogram
system.tol2bus.snoop_fanout::underflows             0      0.00%      0.00% # Request fanout histogram
system.tol2bus.snoop_fanout::0               35166722     97.40%     97.40% # Request fanout histogram
system.tol2bus.snoop_fanout::1                 937444      2.60%    100.00% # Request fanout histogram
system.tol2bus.snoop_fanout::2                      0      0.00%    100.00% # Request fanout histogram
system.tol2bus.snoop_fanout::3                      0      0.00%    100.00% # Request fanout histogram
system.tol2bus.snoop_fanout::4                      0      0.00%    100.00% # Request fanout histogram
system.tol2bus.snoop_fanout::overflows              0      0.00%    100.00% # Request fanout histogram
system.tol2bus.snoop_fanout::min_value              0                       # Request fanout histogram
system.tol2bus.snoop_fanout::max_value              1                       # Request fanout histogram
system.tol2bus.snoop_fanout::total           36104166                       # Request fanout histogram
system.tol2bus.reqLayer0.occupancy        50932419000                       # Layer occupancy (ticks)
system.tol2bus.reqLayer0.utilization              2.7                       # Layer utilization (%)
system.tol2bus.respLayer0.occupancy       28650930000                       # Layer occupancy (ticks)
system.tol2bus.respLayer0.utilization             1.5                       # Layer utilization (%)
system.tol2bus.respLayer1.occupancy       15338941500                       # Layer occupancy (ticks)
system.tol2bus.respLayer1.utilization             0.8                       # Layer utilization (%)

---------- End Simulation Statistics   ----------
