
---------- Begin Simulation Statistics ----------
sim_seconds                                  1.061430                       # Number of seconds simulated
sim_ticks                                1061429620500                       # Number of ticks simulated
final_tick                               1061429620500                       # Number of ticks from beginning of simulation (restored from checkpoints and never reset)
sim_freq                                 1000000000000                       # Frequency of simulated ticks
host_inst_rate                                 144386                       # Simulator instruction rate (inst/s)
host_op_rate                                   210934                       # Simulator op (including micro ops) rate (op/s)
host_tick_rate                              306511765                       # Simulator tick rate (ticks/s)
host_mem_usage                                 828420                       # Number of bytes of host memory used
host_seconds                                  3462.93                       # Real time elapsed on the host
sim_insts                                   500000000                       # Number of instructions simulated
sim_ops                                     730450481                       # Number of ops (including micro ops) simulated
system.voltage_domain.voltage                       1                       # Voltage in Volts
system.clk_domain.clock                          1000                       # Clock period in ticks
system.mem_ctrls.bytes_read::cpu.inst           64384                       # Number of bytes read from this memory
system.mem_ctrls.bytes_read::cpu.data        48022912                       # Number of bytes read from this memory
system.mem_ctrls.bytes_read::total           48087296                       # Number of bytes read from this memory
system.mem_ctrls.bytes_inst_read::cpu.inst        64384                       # Number of instructions bytes read from this memory
system.mem_ctrls.bytes_inst_read::total         64384                       # Number of instructions bytes read from this memory
system.mem_ctrls.bytes_written::writebacks     24876544                       # Number of bytes written to this memory
system.mem_ctrls.bytes_written::total        24876544                       # Number of bytes written to this memory
system.mem_ctrls.num_reads::cpu.inst             1006                       # Number of read requests responded to by this memory
system.mem_ctrls.num_reads::cpu.data           750358                       # Number of read requests responded to by this memory
system.mem_ctrls.num_reads::total              751364                       # Number of read requests responded to by this memory
system.mem_ctrls.num_writes::writebacks        388696                       # Number of write requests responded to by this memory
system.mem_ctrls.num_writes::total             388696                       # Number of write requests responded to by this memory
system.mem_ctrls.bw_read::cpu.inst              60658                       # Total read bandwidth from this memory (bytes/s)
system.mem_ctrls.bw_read::cpu.data           45243614                       # Total read bandwidth from this memory (bytes/s)
system.mem_ctrls.bw_read::total              45304272                       # Total read bandwidth from this memory (bytes/s)
system.mem_ctrls.bw_inst_read::cpu.inst         60658                       # Instruction read bandwidth from this memory (bytes/s)
system.mem_ctrls.bw_inst_read::total            60658                       # Instruction read bandwidth from this memory (bytes/s)
system.mem_ctrls.bw_write::writebacks        23436829                       # Write bandwidth from this memory (bytes/s)
system.mem_ctrls.bw_write::total             23436829                       # Write bandwidth from this memory (bytes/s)
system.mem_ctrls.bw_total::writebacks        23436829                       # Total bandwidth to/from this memory (bytes/s)
system.mem_ctrls.bw_total::cpu.inst             60658                       # Total bandwidth to/from this memory (bytes/s)
system.mem_ctrls.bw_total::cpu.data          45243614                       # Total bandwidth to/from this memory (bytes/s)
system.mem_ctrls.bw_total::total             68741100                       # Total bandwidth to/from this memory (bytes/s)
system.mem_ctrls.readReqs                      751364                       # Number of read requests accepted
system.mem_ctrls.writeReqs                     388696                       # Number of write requests accepted
system.mem_ctrls.readBursts                    751364                       # Number of DRAM read bursts, including those serviced by the write queue
system.mem_ctrls.writeBursts                   388696                       # Number of DRAM write bursts, including those merged in the write queue
system.mem_ctrls.bytesReadDRAM               47985856                       # Total number of bytes read from DRAM
system.mem_ctrls.bytesReadWrQ                  101440                       # Total number of bytes read from write queue
system.mem_ctrls.bytesWritten                24872576                       # Total number of bytes written to DRAM
system.mem_ctrls.bytesReadSys                48087296                       # Total read bytes from the system interface side
system.mem_ctrls.bytesWrittenSys             24876544                       # Total written bytes from the system interface side
system.mem_ctrls.servicedByWrQ                   1585                       # Number of DRAM read bursts serviced by the write queue
system.mem_ctrls.mergedWrBursts                    36                       # Number of DRAM write bursts merged with an existing one
system.mem_ctrls.neitherReadNorWriteReqs       345445                       # Number of requests that are neither read nor write
system.mem_ctrls.perBankRdBursts::0             49021                       # Per bank write bursts
system.mem_ctrls.perBankRdBursts::1             47525                       # Per bank write bursts
system.mem_ctrls.perBankRdBursts::2             47690                       # Per bank write bursts
system.mem_ctrls.perBankRdBursts::3             44995                       # Per bank write bursts
system.mem_ctrls.perBankRdBursts::4             44487                       # Per bank write bursts
system.mem_ctrls.perBankRdBursts::5             44156                       # Per bank write bursts
system.mem_ctrls.perBankRdBursts::6             45995                       # Per bank write bursts
system.mem_ctrls.perBankRdBursts::7             45181                       # Per bank write bursts
system.mem_ctrls.perBankRdBursts::8             43025                       # Per bank write bursts
system.mem_ctrls.perBankRdBursts::9             43391                       # Per bank write bursts
system.mem_ctrls.perBankRdBursts::10            47186                       # Per bank write bursts
system.mem_ctrls.perBankRdBursts::11            47611                       # Per bank write bursts
system.mem_ctrls.perBankRdBursts::12            49418                       # Per bank write bursts
system.mem_ctrls.perBankRdBursts::13            49367                       # Per bank write bursts
system.mem_ctrls.perBankRdBursts::14            49758                       # Per bank write bursts
system.mem_ctrls.perBankRdBursts::15            50973                       # Per bank write bursts
system.mem_ctrls.perBankWrBursts::0             25143                       # Per bank write bursts
system.mem_ctrls.perBankWrBursts::1             24652                       # Per bank write bursts
system.mem_ctrls.perBankWrBursts::2             25727                       # Per bank write bursts
system.mem_ctrls.perBankWrBursts::3             23727                       # Per bank write bursts
system.mem_ctrls.perBankWrBursts::4             23142                       # Per bank write bursts
system.mem_ctrls.perBankWrBursts::5             22679                       # Per bank write bursts
system.mem_ctrls.perBankWrBursts::6             23928                       # Per bank write bursts
system.mem_ctrls.perBankWrBursts::7             23851                       # Per bank write bursts
system.mem_ctrls.perBankWrBursts::8             22879                       # Per bank write bursts
system.mem_ctrls.perBankWrBursts::9             22997                       # Per bank write bursts
system.mem_ctrls.perBankWrBursts::10            24361                       # Per bank write bursts
system.mem_ctrls.perBankWrBursts::11            24133                       # Per bank write bursts
system.mem_ctrls.perBankWrBursts::12            24701                       # Per bank write bursts
system.mem_ctrls.perBankWrBursts::13            25021                       # Per bank write bursts
system.mem_ctrls.perBankWrBursts::14            25284                       # Per bank write bursts
system.mem_ctrls.perBankWrBursts::15            26409                       # Per bank write bursts
system.mem_ctrls.numRdRetry                         0                       # Number of times read queue was full causing retry
system.mem_ctrls.numWrRetry                         0                       # Number of times write queue was full causing retry
system.mem_ctrls.totGap                  1061397026500                       # Total gap between requests
system.mem_ctrls.readPktSize::0                     0                       # Read request sizes (log2)
system.mem_ctrls.readPktSize::1                     0                       # Read request sizes (log2)
system.mem_ctrls.readPktSize::2                     0                       # Read request sizes (log2)
system.mem_ctrls.readPktSize::3                     0                       # Read request sizes (log2)
system.mem_ctrls.readPktSize::4                     0                       # Read request sizes (log2)
system.mem_ctrls.readPktSize::5                     0                       # Read request sizes (log2)
system.mem_ctrls.readPktSize::6                751364                       # Read request sizes (log2)
system.mem_ctrls.writePktSize::0                    0                       # Write request sizes (log2)
system.mem_ctrls.writePktSize::1                    0                       # Write request sizes (log2)
system.mem_ctrls.writePktSize::2                    0                       # Write request sizes (log2)
system.mem_ctrls.writePktSize::3                    0                       # Write request sizes (log2)
system.mem_ctrls.writePktSize::4                    0                       # Write request sizes (log2)
system.mem_ctrls.writePktSize::5                    0                       # Write request sizes (log2)
system.mem_ctrls.writePktSize::6               388696                       # Write request sizes (log2)
system.mem_ctrls.rdQLenPdf::0                  741160                       # What read queue length does an incoming req see
system.mem_ctrls.rdQLenPdf::1                    8081                       # What read queue length does an incoming req see
system.mem_ctrls.rdQLenPdf::2                     419                       # What read queue length does an incoming req see
system.mem_ctrls.rdQLenPdf::3                     119                       # What read queue length does an incoming req see
system.mem_ctrls.rdQLenPdf::4                       0                       # What read queue length does an incoming req see
system.mem_ctrls.rdQLenPdf::5                       0                       # What read queue length does an incoming req see
system.mem_ctrls.rdQLenPdf::6                       0                       # What read queue length does an incoming req see
system.mem_ctrls.rdQLenPdf::7                       0                       # What read queue length does an incoming req see
system.mem_ctrls.rdQLenPdf::8                       0                       # What read queue length does an incoming req see
system.mem_ctrls.rdQLenPdf::9                       0                       # What read queue length does an incoming req see
system.mem_ctrls.rdQLenPdf::10                      0                       # What read queue length does an incoming req see
system.mem_ctrls.rdQLenPdf::11                      0                       # What read queue length does an incoming req see
system.mem_ctrls.rdQLenPdf::12                      0                       # What read queue length does an incoming req see
system.mem_ctrls.rdQLenPdf::13                      0                       # What read queue length does an incoming req see
system.mem_ctrls.rdQLenPdf::14                      0                       # What read queue length does an incoming req see
system.mem_ctrls.rdQLenPdf::15                      0                       # What read queue length does an incoming req see
system.mem_ctrls.rdQLenPdf::16                      0                       # What read queue length does an incoming req see
system.mem_ctrls.rdQLenPdf::17                      0                       # What read queue length does an incoming req see
system.mem_ctrls.rdQLenPdf::18                      0                       # What read queue length does an incoming req see
system.mem_ctrls.rdQLenPdf::19                      0                       # What read queue length does an incoming req see
system.mem_ctrls.rdQLenPdf::20                      0                       # What read queue length does an incoming req see
system.mem_ctrls.rdQLenPdf::21                      0                       # What read queue length does an incoming req see
system.mem_ctrls.rdQLenPdf::22                      0                       # What read queue length does an incoming req see
system.mem_ctrls.rdQLenPdf::23                      0                       # What read queue length does an incoming req see
system.mem_ctrls.rdQLenPdf::24                      0                       # What read queue length does an incoming req see
system.mem_ctrls.rdQLenPdf::25                      0                       # What read queue length does an incoming req see
system.mem_ctrls.rdQLenPdf::26                      0                       # What read queue length does an incoming req see
system.mem_ctrls.rdQLenPdf::27                      0                       # What read queue length does an incoming req see
system.mem_ctrls.rdQLenPdf::28                      0                       # What read queue length does an incoming req see
system.mem_ctrls.rdQLenPdf::29                      0                       # What read queue length does an incoming req see
system.mem_ctrls.rdQLenPdf::30                      0                       # What read queue length does an incoming req see
system.mem_ctrls.rdQLenPdf::31                      0                       # What read queue length does an incoming req see
system.mem_ctrls.wrQLenPdf::0                       1                       # What write queue length does an incoming req see
system.mem_ctrls.wrQLenPdf::1                       1                       # What write queue length does an incoming req see
system.mem_ctrls.wrQLenPdf::2                       1                       # What write queue length does an incoming req see
system.mem_ctrls.wrQLenPdf::3                       1                       # What write queue length does an incoming req see
system.mem_ctrls.wrQLenPdf::4                       1                       # What write queue length does an incoming req see
system.mem_ctrls.wrQLenPdf::5                       1                       # What write queue length does an incoming req see
system.mem_ctrls.wrQLenPdf::6                       1                       # What write queue length does an incoming req see
system.mem_ctrls.wrQLenPdf::7                       1                       # What write queue length does an incoming req see
system.mem_ctrls.wrQLenPdf::8                       1                       # What write queue length does an incoming req see
system.mem_ctrls.wrQLenPdf::9                       1                       # What write queue length does an incoming req see
system.mem_ctrls.wrQLenPdf::10                      1                       # What write queue length does an incoming req see
system.mem_ctrls.wrQLenPdf::11                      1                       # What write queue length does an incoming req see
system.mem_ctrls.wrQLenPdf::12                      1                       # What write queue length does an incoming req see
system.mem_ctrls.wrQLenPdf::13                      1                       # What write queue length does an incoming req see
system.mem_ctrls.wrQLenPdf::14                      1                       # What write queue length does an incoming req see
system.mem_ctrls.wrQLenPdf::15                  14911                       # What write queue length does an incoming req see
system.mem_ctrls.wrQLenPdf::16                  15702                       # What write queue length does an incoming req see
system.mem_ctrls.wrQLenPdf::17                  22360                       # What write queue length does an incoming req see
system.mem_ctrls.wrQLenPdf::18                  22384                       # What write queue length does an incoming req see
system.mem_ctrls.wrQLenPdf::19                  22367                       # What write queue length does an incoming req see
system.mem_ctrls.wrQLenPdf::20                  22367                       # What write queue length does an incoming req see
system.mem_ctrls.wrQLenPdf::21                  22355                       # What write queue length does an incoming req see
system.mem_ctrls.wrQLenPdf::22                  22359                       # What write queue length does an incoming req see
system.mem_ctrls.wrQLenPdf::23                  22358                       # What write queue length does an incoming req see
system.mem_ctrls.wrQLenPdf::24                  22355                       # What write queue length does an incoming req see
system.mem_ctrls.wrQLenPdf::25                  22359                       # What write queue length does an incoming req see
system.mem_ctrls.wrQLenPdf::26                  22373                       # What write queue length does an incoming req see
system.mem_ctrls.wrQLenPdf::27                  22473                       # What write queue length does an incoming req see
system.mem_ctrls.wrQLenPdf::28                  22499                       # What write queue length does an incoming req see
system.mem_ctrls.wrQLenPdf::29                  22361                       # What write queue length does an incoming req see
system.mem_ctrls.wrQLenPdf::30                  22353                       # What write queue length does an incoming req see
system.mem_ctrls.wrQLenPdf::31                  22352                       # What write queue length does an incoming req see
system.mem_ctrls.wrQLenPdf::32                  22351                       # What write queue length does an incoming req see
system.mem_ctrls.wrQLenPdf::33                      5                       # What write queue length does an incoming req see
system.mem_ctrls.wrQLenPdf::34                      1                       # What write queue length does an incoming req see
system.mem_ctrls.wrQLenPdf::35                      0                       # What write queue length does an incoming req see
system.mem_ctrls.wrQLenPdf::36                      0                       # What write queue length does an incoming req see
system.mem_ctrls.wrQLenPdf::37                      0                       # What write queue length does an incoming req see
system.mem_ctrls.wrQLenPdf::38                      0                       # What write queue length does an incoming req see
system.mem_ctrls.wrQLenPdf::39                      0                       # What write queue length does an incoming req see
system.mem_ctrls.wrQLenPdf::40                      0                       # What write queue length does an incoming req see
system.mem_ctrls.wrQLenPdf::41                      0                       # What write queue length does an incoming req see
system.mem_ctrls.wrQLenPdf::42                      0                       # What write queue length does an incoming req see
system.mem_ctrls.wrQLenPdf::43                      0                       # What write queue length does an incoming req see
system.mem_ctrls.wrQLenPdf::44                      0                       # What write queue length does an incoming req see
system.mem_ctrls.wrQLenPdf::45                      0                       # What write queue length does an incoming req see
system.mem_ctrls.wrQLenPdf::46                      0                       # What write queue length does an incoming req see
system.mem_ctrls.wrQLenPdf::47                      0                       # What write queue length does an incoming req see
system.mem_ctrls.wrQLenPdf::48                      0                       # What write queue length does an incoming req see
system.mem_ctrls.wrQLenPdf::49                      0                       # What write queue length does an incoming req see
system.mem_ctrls.wrQLenPdf::50                      0                       # What write queue length does an incoming req see
system.mem_ctrls.wrQLenPdf::51                      0                       # What write queue length does an incoming req see
system.mem_ctrls.wrQLenPdf::52                      0                       # What write queue length does an incoming req see
system.mem_ctrls.wrQLenPdf::53                      0                       # What write queue length does an incoming req see
system.mem_ctrls.wrQLenPdf::54                      0                       # What write queue length does an incoming req see
system.mem_ctrls.wrQLenPdf::55                      0                       # What write queue length does an incoming req see
system.mem_ctrls.wrQLenPdf::56                      0                       # What write queue length does an incoming req see
system.mem_ctrls.wrQLenPdf::57                      0                       # What write queue length does an incoming req see
system.mem_ctrls.wrQLenPdf::58                      0                       # What write queue length does an incoming req see
system.mem_ctrls.wrQLenPdf::59                      0                       # What write queue length does an incoming req see
system.mem_ctrls.wrQLenPdf::60                      0                       # What write queue length does an incoming req see
system.mem_ctrls.wrQLenPdf::61                      0                       # What write queue length does an incoming req see
system.mem_ctrls.wrQLenPdf::62                      0                       # What write queue length does an incoming req see
system.mem_ctrls.wrQLenPdf::63                      0                       # What write queue length does an incoming req see
system.mem_ctrls.bytesPerActivate::samples       578982                       # Bytes accessed per row activation
system.mem_ctrls.bytesPerActivate::mean    125.838855                       # Bytes accessed per row activation
system.mem_ctrls.bytesPerActivate::gmean    92.263010                       # Bytes accessed per row activation
system.mem_ctrls.bytesPerActivate::stdev   155.524956                       # Bytes accessed per row activation
system.mem_ctrls.bytesPerActivate::0-127       400533     69.18%     69.18% # Bytes accessed per row activation
system.mem_ctrls.bytesPerActivate::128-255       116551     20.13%     89.31% # Bytes accessed per row activation
system.mem_ctrls.bytesPerActivate::256-383        25894      4.47%     93.78% # Bytes accessed per row activation
system.mem_ctrls.bytesPerActivate::384-511         9787      1.69%     95.47% # Bytes accessed per row activation
system.mem_ctrls.bytesPerActivate::512-639        12773      2.21%     97.68% # Bytes accessed per row activation
system.mem_ctrls.bytesPerActivate::640-767         2216      0.38%     98.06% # Bytes accessed per row activation
system.mem_ctrls.bytesPerActivate::768-895         1623      0.28%     98.34% # Bytes accessed per row activation
system.mem_ctrls.bytesPerActivate::896-1023         1351      0.23%     98.57% # Bytes accessed per row activation
system.mem_ctrls.bytesPerActivate::1024-1151         8254      1.43%    100.00% # Bytes accessed per row activation
system.mem_ctrls.bytesPerActivate::total       578982                       # Bytes accessed per row activation
system.mem_ctrls.rdPerTurnAround::samples        22351                       # Reads before turning the bus around for writes
system.mem_ctrls.rdPerTurnAround::mean      33.544360                       # Reads before turning the bus around for writes
system.mem_ctrls.rdPerTurnAround::gmean     25.592316                       # Reads before turning the bus around for writes
system.mem_ctrls.rdPerTurnAround::stdev    167.508364                       # Reads before turning the bus around for writes
system.mem_ctrls.rdPerTurnAround::0-1023        22344     99.97%     99.97% # Reads before turning the bus around for writes
system.mem_ctrls.rdPerTurnAround::1024-2047            2      0.01%     99.98% # Reads before turning the bus around for writes
system.mem_ctrls.rdPerTurnAround::5120-6143            1      0.00%     99.98% # Reads before turning the bus around for writes
system.mem_ctrls.rdPerTurnAround::7168-8191            1      0.00%     99.99% # Reads before turning the bus around for writes
system.mem_ctrls.rdPerTurnAround::8192-9215            2      0.01%    100.00% # Reads before turning the bus around for writes
system.mem_ctrls.rdPerTurnAround::18432-19455            1      0.00%    100.00% # Reads before turning the bus around for writes
system.mem_ctrls.rdPerTurnAround::total         22351                       # Reads before turning the bus around for writes
system.mem_ctrls.wrPerTurnAround::samples        22351                       # Writes before turning the bus around for reads
system.mem_ctrls.wrPerTurnAround::mean      17.387768                       # Writes before turning the bus around for reads
system.mem_ctrls.wrPerTurnAround::gmean     17.362129                       # Writes before turning the bus around for reads
system.mem_ctrls.wrPerTurnAround::stdev      0.931723                       # Writes before turning the bus around for reads
system.mem_ctrls.wrPerTurnAround::16             6648     29.74%     29.74% # Writes before turning the bus around for reads
system.mem_ctrls.wrPerTurnAround::17              783      3.50%     33.25% # Writes before turning the bus around for reads
system.mem_ctrls.wrPerTurnAround::18            14530     65.01%     98.26% # Writes before turning the bus around for reads
system.mem_ctrls.wrPerTurnAround::19              385      1.72%     99.98% # Writes before turning the bus around for reads
system.mem_ctrls.wrPerTurnAround::20                5      0.02%    100.00% # Writes before turning the bus around for reads
system.mem_ctrls.wrPerTurnAround::total         22351                       # Writes before turning the bus around for reads
system.mem_ctrls.totQLat                  11007260000                       # Total ticks spent queuing
system.mem_ctrls.totMemAccLat             25065616250                       # Total ticks spent from burst creation until serviced by the DRAM
system.mem_ctrls.totBusLat                 3748895000                       # Total ticks spent in databus transfers
system.mem_ctrls.avgQLat                     14680.67                       # Average queueing delay per DRAM burst
system.mem_ctrls.avgBusLat                    5000.00                       # Average bus latency per DRAM burst
system.mem_ctrls.avgMemAccLat                33430.67                       # Average memory access latency per DRAM burst
system.mem_ctrls.avgRdBW                        45.21                       # Average DRAM read bandwidth in MiByte/s
system.mem_ctrls.avgWrBW                        23.43                       # Average achieved write bandwidth in MiByte/s
system.mem_ctrls.avgRdBWSys                     45.30                       # Average system read bandwidth in MiByte/s
system.mem_ctrls.avgWrBWSys                     23.44                       # Average system write bandwidth in MiByte/s
system.mem_ctrls.peakBW                      12800.00                       # Theoretical peak bandwidth in MiByte/s
system.mem_ctrls.busUtil                         0.54                       # Data bus utilization in percentage
system.mem_ctrls.busUtilRead                     0.35                       # Data bus utilization in percentage for reads
system.mem_ctrls.busUtilWrite                    0.18                       # Data bus utilization in percentage for writes
system.mem_ctrls.avgRdQLen                       1.00                       # Average read queue length when enqueuing
system.mem_ctrls.avgWrQLen                      25.89                       # Average write queue length when enqueuing
system.mem_ctrls.readRowHits                   355751                       # Number of row buffer hits during reads
system.mem_ctrls.writeRowHits                  203680                       # Number of row buffer hits during writes
system.mem_ctrls.readRowHitRate                 47.45                       # Row buffer hit rate for reads
system.mem_ctrls.writeRowHitRate                52.41                       # Row buffer hit rate for writes
system.mem_ctrls.avgGap                     931001.02                       # Average gap between requests
system.mem_ctrls.pageHitRate                    49.14                       # Row buffer hit rate, read and write combined
system.mem_ctrls_0.actEnergy               2152203480                       # Energy for activate commands per rank (pJ)
system.mem_ctrls_0.preEnergy               1174317375                       # Energy for precharge commands per rank (pJ)
system.mem_ctrls_0.readEnergy              2878590000                       # Energy for read commands per rank (pJ)
system.mem_ctrls_0.writeEnergy             1249661520                       # Energy for write commands per rank (pJ)
system.mem_ctrls_0.refreshEnergy          69327407760                       # Energy for refresh commands per rank (pJ)
system.mem_ctrls_0.actBackEnergy         226111780665                       # Energy for active background per rank (pJ)
system.mem_ctrls_0.preBackEnergy         438514112250                       # Energy for precharge background per rank (pJ)
system.mem_ctrls_0.totalEnergy           741408073050                       # Total energy per rank (pJ)
system.mem_ctrls_0.averagePower            698.499505                       # Core power per rank (mW)
system.mem_ctrls_0.memoryStateTime::IDLE 728145252500                       # Time in different power states
system.mem_ctrls_0.memoryStateTime::REF   35443200000                       # Time in different power states
system.mem_ctrls_0.memoryStateTime::PRE_PDN            0                       # Time in different power states
system.mem_ctrls_0.memoryStateTime::ACT  297840933750                       # Time in different power states
system.mem_ctrls_0.memoryStateTime::ACT_PDN            0                       # Time in different power states
system.mem_ctrls_1.actEnergy               2224900440                       # Energy for activate commands per rank (pJ)
system.mem_ctrls_1.preEnergy               1213983375                       # Energy for precharge commands per rank (pJ)
system.mem_ctrls_1.readEnergy              2969686200                       # Energy for read commands per rank (pJ)
system.mem_ctrls_1.writeEnergy             1268686800                       # Energy for write commands per rank (pJ)
system.mem_ctrls_1.refreshEnergy          69327407760                       # Energy for refresh commands per rank (pJ)
system.mem_ctrls_1.actBackEnergy         228950034390                       # Energy for active background per rank (pJ)
system.mem_ctrls_1.preBackEnergy         436024416000                       # Energy for precharge background per rank (pJ)
system.mem_ctrls_1.totalEnergy           741979114965                       # Total energy per rank (pJ)
system.mem_ctrls_1.averagePower            699.037498                       # Core power per rank (mW)
system.mem_ctrls_1.memoryStateTime::IDLE 723971187750                       # Time in different power states
system.mem_ctrls_1.memoryStateTime::REF   35443200000                       # Time in different power states
system.mem_ctrls_1.memoryStateTime::PRE_PDN            0                       # Time in different power states
system.mem_ctrls_1.memoryStateTime::ACT  302014998500                       # Time in different power states
system.mem_ctrls_1.memoryStateTime::ACT_PDN            0                       # Time in different power states
system.cpu_voltage_domain.voltage                   1                       # Voltage in Volts
system.cpu_clk_domain.clock                       500                       # Clock period in ticks
system.cpu.apic_clk_domain.clock                 8000                       # Clock period in ticks
system.cpu.workload.num_syscalls                   86                       # Number of system calls
system.cpu.numCycles                       2122859241                       # number of cpu cycles simulated
system.cpu.numWorkItemsStarted                      0                       # number of work items this cpu started
system.cpu.numWorkItemsCompleted                    0                       # number of work items this cpu completed
system.cpu.committedInsts                   500000000                       # Number of instructions committed
system.cpu.committedOps                     730450481                       # Number of ops (including micro ops) committed
system.cpu.num_int_alu_accesses             729688887                       # Number of integer alu accesses
system.cpu.num_fp_alu_accesses                    761                       # Number of float alu accesses
system.cpu.num_func_calls                     1453959                       # number of times a function call or return occured
system.cpu.num_conditional_control_insts     31770494                       # number of instructions that are conditional controls
system.cpu.num_int_insts                    729688887                       # number of integer instructions
system.cpu.num_fp_insts                           761                       # number of float instructions
system.cpu.num_int_register_reads          1698743312                       # number of times the integer registers were read
system.cpu.num_int_register_writes          621892930                       # number of times the integer registers were written
system.cpu.num_fp_register_reads                 1183                       # number of times the floating registers were read
system.cpu.num_fp_register_writes                 497                       # number of times the floating registers were written
system.cpu.num_cc_register_reads            180840590                       # number of times the CC registers were read
system.cpu.num_cc_register_writes           276245123                       # number of times the CC registers were written
system.cpu.num_mem_refs                     295985437                       # number of memory refs
system.cpu.num_load_insts                   225946734                       # Number of load instructions
system.cpu.num_store_insts                   70038703                       # Number of store instructions
system.cpu.num_idle_cycles                          0                       # Number of idle cycles
system.cpu.num_busy_cycles                 2122859241                       # Number of busy cycles
system.cpu.not_idle_fraction                        1                       # Percentage of non-idle cycles
system.cpu.idle_fraction                            0                       # Percentage of idle cycles
system.cpu.Branches                          37843290                       # Number of branches fetched
system.cpu.op_class::No_OpClass                 94739      0.01%      0.01% # Class of executed instruction
system.cpu.op_class::IntAlu                 434349056     59.46%     59.48% # Class of executed instruction
system.cpu.op_class::IntMult                    20662      0.00%     59.48% # Class of executed instruction
system.cpu.op_class::IntDiv                       119      0.00%     59.48% # Class of executed instruction
system.cpu.op_class::FloatAdd                     468      0.00%     59.48% # Class of executed instruction
system.cpu.op_class::FloatCmp                       0      0.00%     59.48% # Class of executed instruction
system.cpu.op_class::FloatCvt                       0      0.00%     59.48% # Class of executed instruction
system.cpu.op_class::FloatMult                      0      0.00%     59.48% # Class of executed instruction
system.cpu.op_class::FloatDiv                       0      0.00%     59.48% # Class of executed instruction
system.cpu.op_class::FloatSqrt                      0      0.00%     59.48% # Class of executed instruction
system.cpu.op_class::SimdAdd                        0      0.00%     59.48% # Class of executed instruction
system.cpu.op_class::SimdAddAcc                     0      0.00%     59.48% # Class of executed instruction
system.cpu.op_class::SimdAlu                        0      0.00%     59.48% # Class of executed instruction
system.cpu.op_class::SimdCmp                        0      0.00%     59.48% # Class of executed instruction
system.cpu.op_class::SimdCvt                        0      0.00%     59.48% # Class of executed instruction
system.cpu.op_class::SimdMisc                       0      0.00%     59.48% # Class of executed instruction
system.cpu.op_class::SimdMult                       0      0.00%     59.48% # Class of executed instruction
system.cpu.op_class::SimdMultAcc                    0      0.00%     59.48% # Class of executed instruction
system.cpu.op_class::SimdShift                      0      0.00%     59.48% # Class of executed instruction
system.cpu.op_class::SimdShiftAcc                   0      0.00%     59.48% # Class of executed instruction
system.cpu.op_class::SimdSqrt                       0      0.00%     59.48% # Class of executed instruction
system.cpu.op_class::SimdFloatAdd                   0      0.00%     59.48% # Class of executed instruction
system.cpu.op_class::SimdFloatAlu                   0      0.00%     59.48% # Class of executed instruction
system.cpu.op_class::SimdFloatCmp                   0      0.00%     59.48% # Class of executed instruction
system.cpu.op_class::SimdFloatCvt                   0      0.00%     59.48% # Class of executed instruction
system.cpu.op_class::SimdFloatDiv                   0      0.00%     59.48% # Class of executed instruction
system.cpu.op_class::SimdFloatMisc                  0      0.00%     59.48% # Class of executed instruction
system.cpu.op_class::SimdFloatMult                  0      0.00%     59.48% # Class of executed instruction
system.cpu.op_class::SimdFloatMultAcc               0      0.00%     59.48% # Class of executed instruction
system.cpu.op_class::SimdFloatSqrt                  0      0.00%     59.48% # Class of executed instruction
system.cpu.op_class::MemRead                225946734     30.93%     90.41% # Class of executed instruction
system.cpu.op_class::MemWrite                70038703      9.59%    100.00% # Class of executed instruction
system.cpu.op_class::IprAccess                      0      0.00%    100.00% # Class of executed instruction
system.cpu.op_class::InstPrefetch                   0      0.00%    100.00% # Class of executed instruction
system.cpu.op_class::total                  730450481                       # Class of executed instruction
system.cpu.dcache.tags.replacements           2042531                       # number of replacements
system.cpu.dcache.tags.tagsinuse          2042.206634                       # Cycle average of tags in use
system.cpu.dcache.tags.total_refs           293940866                       # Total number of references to valid blocks.
system.cpu.dcache.tags.sampled_refs           2044579                       # Sample count of references to valid blocks.
system.cpu.dcache.tags.avg_refs            143.765962                       # Average number of references to valid blocks.
system.cpu.dcache.tags.warmup_cycle        3524812500                       # Cycle when the warmup percentage was hit.
system.cpu.dcache.tags.occ_blocks::cpu.data  2042.206634                       # Average occupied blocks per requestor
system.cpu.dcache.tags.occ_percent::cpu.data     0.997171                       # Average percentage of cache occupancy
system.cpu.dcache.tags.occ_percent::total     0.997171                       # Average percentage of cache occupancy
system.cpu.dcache.tags.occ_task_id_blocks::1024         2048                       # Occupied blocks per task id
system.cpu.dcache.tags.age_task_id_blocks_1024::1            2                       # Occupied blocks per task id
system.cpu.dcache.tags.age_task_id_blocks_1024::2           16                       # Occupied blocks per task id
system.cpu.dcache.tags.age_task_id_blocks_1024::3         1422                       # Occupied blocks per task id
system.cpu.dcache.tags.age_task_id_blocks_1024::4          608                       # Occupied blocks per task id
system.cpu.dcache.tags.occ_task_id_percent::1024            1                       # Percentage of cache occupancy per task id
system.cpu.dcache.tags.tag_accesses         594015469                       # Number of tag accesses
system.cpu.dcache.tags.data_accesses        594015469                       # Number of data accesses
system.cpu.dcache.ReadReq_hits::cpu.data    224491166                       # number of ReadReq hits
system.cpu.dcache.ReadReq_hits::total       224491166                       # number of ReadReq hits
system.cpu.dcache.WriteReq_hits::cpu.data     69449700                       # number of WriteReq hits
system.cpu.dcache.WriteReq_hits::total       69449700                       # number of WriteReq hits
system.cpu.dcache.demand_hits::cpu.data     293940866                       # number of demand (read+write) hits
system.cpu.dcache.demand_hits::total        293940866                       # number of demand (read+write) hits
system.cpu.dcache.overall_hits::cpu.data    293940866                       # number of overall hits
system.cpu.dcache.overall_hits::total       293940866                       # number of overall hits
system.cpu.dcache.ReadReq_misses::cpu.data      1439192                       # number of ReadReq misses
system.cpu.dcache.ReadReq_misses::total       1439192                       # number of ReadReq misses
system.cpu.dcache.WriteReq_misses::cpu.data       589003                       # number of WriteReq misses
system.cpu.dcache.WriteReq_misses::total       589003                       # number of WriteReq misses
system.cpu.dcache.SoftPFReq_misses::cpu.data        16384                       # number of SoftPFReq misses
system.cpu.dcache.SoftPFReq_misses::total        16384                       # number of SoftPFReq misses
system.cpu.dcache.demand_misses::cpu.data      2028195                       # number of demand (read+write) misses
system.cpu.dcache.demand_misses::total        2028195                       # number of demand (read+write) misses
system.cpu.dcache.overall_misses::cpu.data      2044579                       # number of overall misses
system.cpu.dcache.overall_misses::total       2044579                       # number of overall misses
system.cpu.dcache.ReadReq_miss_latency::cpu.data  49176295000                       # number of ReadReq miss cycles
system.cpu.dcache.ReadReq_miss_latency::total  49176295000                       # number of ReadReq miss cycles
system.cpu.dcache.WriteReq_miss_latency::cpu.data  30712912500                       # number of WriteReq miss cycles
system.cpu.dcache.WriteReq_miss_latency::total  30712912500                       # number of WriteReq miss cycles
system.cpu.dcache.demand_miss_latency::cpu.data  79889207500                       # number of demand (read+write) miss cycles
system.cpu.dcache.demand_miss_latency::total  79889207500                       # number of demand (read+write) miss cycles
system.cpu.dcache.overall_miss_latency::cpu.data  79889207500                       # number of overall miss cycles
system.cpu.dcache.overall_miss_latency::total  79889207500                       # number of overall miss cycles
system.cpu.dcache.ReadReq_accesses::cpu.data    225930358                       # number of ReadReq accesses(hits+misses)
system.cpu.dcache.ReadReq_accesses::total    225930358                       # number of ReadReq accesses(hits+misses)
system.cpu.dcache.WriteReq_accesses::cpu.data     70038703                       # number of WriteReq accesses(hits+misses)
system.cpu.dcache.WriteReq_accesses::total     70038703                       # number of WriteReq accesses(hits+misses)
system.cpu.dcache.SoftPFReq_accesses::cpu.data        16384                       # number of SoftPFReq accesses(hits+misses)
system.cpu.dcache.SoftPFReq_accesses::total        16384                       # number of SoftPFReq accesses(hits+misses)
system.cpu.dcache.demand_accesses::cpu.data    295969061                       # number of demand (read+write) accesses
system.cpu.dcache.demand_accesses::total    295969061                       # number of demand (read+write) accesses
system.cpu.dcache.overall_accesses::cpu.data    295985445                       # number of overall (read+write) accesses
system.cpu.dcache.overall_accesses::total    295985445                       # number of overall (read+write) accesses
system.cpu.dcache.ReadReq_miss_rate::cpu.data     0.006370                       # miss rate for ReadReq accesses
system.cpu.dcache.ReadReq_miss_rate::total     0.006370                       # miss rate for ReadReq accesses
system.cpu.dcache.WriteReq_miss_rate::cpu.data     0.008410                       # miss rate for WriteReq accesses
system.cpu.dcache.WriteReq_miss_rate::total     0.008410                       # miss rate for WriteReq accesses
system.cpu.dcache.SoftPFReq_miss_rate::cpu.data            1                       # miss rate for SoftPFReq accesses
system.cpu.dcache.SoftPFReq_miss_rate::total            1                       # miss rate for SoftPFReq accesses
system.cpu.dcache.demand_miss_rate::cpu.data     0.006853                       # miss rate for demand accesses
system.cpu.dcache.demand_miss_rate::total     0.006853                       # miss rate for demand accesses
system.cpu.dcache.overall_miss_rate::cpu.data     0.006908                       # miss rate for overall accesses
system.cpu.dcache.overall_miss_rate::total     0.006908                       # miss rate for overall accesses
system.cpu.dcache.ReadReq_avg_miss_latency::cpu.data 34169.377679                       # average ReadReq miss latency
system.cpu.dcache.ReadReq_avg_miss_latency::total 34169.377679                       # average ReadReq miss latency
system.cpu.dcache.WriteReq_avg_miss_latency::cpu.data 52143.898248                       # average WriteReq miss latency
system.cpu.dcache.WriteReq_avg_miss_latency::total 52143.898248                       # average WriteReq miss latency
system.cpu.dcache.demand_avg_miss_latency::cpu.data 39389.312911                       # average overall miss latency
system.cpu.dcache.demand_avg_miss_latency::total 39389.312911                       # average overall miss latency
system.cpu.dcache.overall_avg_miss_latency::cpu.data 39073.671157                       # average overall miss latency
system.cpu.dcache.overall_avg_miss_latency::total 39073.671157                       # average overall miss latency
system.cpu.dcache.blocked_cycles::no_mshrs       231856                       # number of cycles access was blocked
system.cpu.dcache.blocked_cycles::no_targets            0                       # number of cycles access was blocked
system.cpu.dcache.blocked::no_mshrs              5413                       # number of cycles access was blocked
system.cpu.dcache.blocked::no_targets               0                       # number of cycles access was blocked
system.cpu.dcache.avg_blocked_cycles::no_mshrs    42.833179                       # average number of cycles each access was blocked
system.cpu.dcache.avg_blocked_cycles::no_targets          nan                       # average number of cycles each access was blocked
system.cpu.dcache.fast_writes                       0                       # number of fast writes performed
system.cpu.dcache.cache_copies                      0                       # number of cache copies performed
system.cpu.dcache.writebacks::writebacks       948195                       # number of writebacks
system.cpu.dcache.writebacks::total            948195                       # number of writebacks
system.cpu.dcache.ReadReq_mshr_misses::cpu.data      1439192                       # number of ReadReq MSHR misses
system.cpu.dcache.ReadReq_mshr_misses::total      1439192                       # number of ReadReq MSHR misses
system.cpu.dcache.WriteReq_mshr_misses::cpu.data       589003                       # number of WriteReq MSHR misses
system.cpu.dcache.WriteReq_mshr_misses::total       589003                       # number of WriteReq MSHR misses
system.cpu.dcache.SoftPFReq_mshr_misses::cpu.data        16384                       # number of SoftPFReq MSHR misses
system.cpu.dcache.SoftPFReq_mshr_misses::total        16384                       # number of SoftPFReq MSHR misses
system.cpu.dcache.demand_mshr_misses::cpu.data      2028195                       # number of demand (read+write) MSHR misses
system.cpu.dcache.demand_mshr_misses::total      2028195                       # number of demand (read+write) MSHR misses
system.cpu.dcache.overall_mshr_misses::cpu.data      2044579                       # number of overall MSHR misses
system.cpu.dcache.overall_mshr_misses::total      2044579                       # number of overall MSHR misses
system.cpu.dcache.ReadReq_mshr_miss_latency::cpu.data  47737103000                       # number of ReadReq MSHR miss cycles
system.cpu.dcache.ReadReq_mshr_miss_latency::total  47737103000                       # number of ReadReq MSHR miss cycles
system.cpu.dcache.WriteReq_mshr_miss_latency::cpu.data  30123909500                       # number of WriteReq MSHR miss cycles
system.cpu.dcache.WriteReq_mshr_miss_latency::total  30123909500                       # number of WriteReq MSHR miss cycles
system.cpu.dcache.SoftPFReq_mshr_miss_latency::cpu.data   1281719465                       # number of SoftPFReq MSHR miss cycles
system.cpu.dcache.SoftPFReq_mshr_miss_latency::total   1281719465                       # number of SoftPFReq MSHR miss cycles
system.cpu.dcache.demand_mshr_miss_latency::cpu.data  77861012500                       # number of demand (read+write) MSHR miss cycles
system.cpu.dcache.demand_mshr_miss_latency::total  77861012500                       # number of demand (read+write) MSHR miss cycles
system.cpu.dcache.overall_mshr_miss_latency::cpu.data  79142731965                       # number of overall MSHR miss cycles
system.cpu.dcache.overall_mshr_miss_latency::total  79142731965                       # number of overall MSHR miss cycles
system.cpu.dcache.ReadReq_mshr_miss_rate::cpu.data     0.006370                       # mshr miss rate for ReadReq accesses
system.cpu.dcache.ReadReq_mshr_miss_rate::total     0.006370                       # mshr miss rate for ReadReq accesses
system.cpu.dcache.WriteReq_mshr_miss_rate::cpu.data     0.008410                       # mshr miss rate for WriteReq accesses
system.cpu.dcache.WriteReq_mshr_miss_rate::total     0.008410                       # mshr miss rate for WriteReq accesses
system.cpu.dcache.SoftPFReq_mshr_miss_rate::cpu.data            1                       # mshr miss rate for SoftPFReq accesses
system.cpu.dcache.SoftPFReq_mshr_miss_rate::total            1                       # mshr miss rate for SoftPFReq accesses
system.cpu.dcache.demand_mshr_miss_rate::cpu.data     0.006853                       # mshr miss rate for demand accesses
system.cpu.dcache.demand_mshr_miss_rate::total     0.006853                       # mshr miss rate for demand accesses
system.cpu.dcache.overall_mshr_miss_rate::cpu.data     0.006908                       # mshr miss rate for overall accesses
system.cpu.dcache.overall_mshr_miss_rate::total     0.006908                       # mshr miss rate for overall accesses
system.cpu.dcache.ReadReq_avg_mshr_miss_latency::cpu.data 33169.377679                       # average ReadReq mshr miss latency
system.cpu.dcache.ReadReq_avg_mshr_miss_latency::total 33169.377679                       # average ReadReq mshr miss latency
system.cpu.dcache.WriteReq_avg_mshr_miss_latency::cpu.data 51143.898248                       # average WriteReq mshr miss latency
system.cpu.dcache.WriteReq_avg_mshr_miss_latency::total 51143.898248                       # average WriteReq mshr miss latency
system.cpu.dcache.SoftPFReq_avg_mshr_miss_latency::cpu.data 78229.947815                       # average SoftPFReq mshr miss latency
system.cpu.dcache.SoftPFReq_avg_mshr_miss_latency::total 78229.947815                       # average SoftPFReq mshr miss latency
system.cpu.dcache.demand_avg_mshr_miss_latency::cpu.data 38389.312911                       # average overall mshr miss latency
system.cpu.dcache.demand_avg_mshr_miss_latency::total 38389.312911                       # average overall mshr miss latency
system.cpu.dcache.overall_avg_mshr_miss_latency::cpu.data 38708.571283                       # average overall mshr miss latency
system.cpu.dcache.overall_avg_mshr_miss_latency::total 38708.571283                       # average overall mshr miss latency
system.cpu.dcache.no_allocate_misses                0                       # Number of misses that were no-allocate
system.cpu.dtb_walker_cache.tags.replacements            0                       # number of replacements
system.cpu.dtb_walker_cache.tags.tagsinuse            0                       # Cycle average of tags in use
system.cpu.dtb_walker_cache.tags.total_refs            0                       # Total number of references to valid blocks.
system.cpu.dtb_walker_cache.tags.sampled_refs            0                       # Sample count of references to valid blocks.
system.cpu.dtb_walker_cache.tags.avg_refs          nan                       # Average number of references to valid blocks.
system.cpu.dtb_walker_cache.tags.warmup_cycle            0                       # Cycle when the warmup percentage was hit.
system.cpu.dtb_walker_cache.tags.tag_accesses            0                       # Number of tag accesses
system.cpu.dtb_walker_cache.tags.data_accesses            0                       # Number of data accesses
system.cpu.dtb_walker_cache.blocked_cycles::no_mshrs            0                       # number of cycles access was blocked
system.cpu.dtb_walker_cache.blocked_cycles::no_targets            0                       # number of cycles access was blocked
system.cpu.dtb_walker_cache.blocked::no_mshrs            0                       # number of cycles access was blocked
system.cpu.dtb_walker_cache.blocked::no_targets            0                       # number of cycles access was blocked
system.cpu.dtb_walker_cache.avg_blocked_cycles::no_mshrs          nan                       # average number of cycles each access was blocked
system.cpu.dtb_walker_cache.avg_blocked_cycles::no_targets          nan                       # average number of cycles each access was blocked
system.cpu.dtb_walker_cache.fast_writes             0                       # number of fast writes performed
system.cpu.dtb_walker_cache.cache_copies            0                       # number of cache copies performed
system.cpu.dtb_walker_cache.no_allocate_misses            0                       # Number of misses that were no-allocate
system.cpu.icache.tags.replacements               142                       # number of replacements
system.cpu.icache.tags.tagsinuse           632.337670                       # Cycle average of tags in use
system.cpu.icache.tags.total_refs           687396840                       # Total number of references to valid blocks.
system.cpu.icache.tags.sampled_refs              1020                       # Sample count of references to valid blocks.
system.cpu.icache.tags.avg_refs          673918.470588                       # Average number of references to valid blocks.
system.cpu.icache.tags.warmup_cycle                 0                       # Cycle when the warmup percentage was hit.
system.cpu.icache.tags.occ_blocks::cpu.inst   632.337670                       # Average occupied blocks per requestor
system.cpu.icache.tags.occ_percent::cpu.inst     0.308759                       # Average percentage of cache occupancy
system.cpu.icache.tags.occ_percent::total     0.308759                       # Average percentage of cache occupancy
system.cpu.icache.tags.occ_task_id_blocks::1024          878                       # Occupied blocks per task id
system.cpu.icache.tags.age_task_id_blocks_1024::1            7                       # Occupied blocks per task id
system.cpu.icache.tags.age_task_id_blocks_1024::3           25                       # Occupied blocks per task id
system.cpu.icache.tags.age_task_id_blocks_1024::4          846                       # Occupied blocks per task id
system.cpu.icache.tags.occ_task_id_percent::1024     0.428711                       # Percentage of cache occupancy per task id
system.cpu.icache.tags.tag_accesses         687398880                       # Number of tag accesses
system.cpu.icache.tags.data_accesses        687398880                       # Number of data accesses
system.cpu.icache.ReadReq_hits::cpu.inst    687396840                       # number of ReadReq hits
system.cpu.icache.ReadReq_hits::total       687396840                       # number of ReadReq hits
system.cpu.icache.demand_hits::cpu.inst     687396840                       # number of demand (read+write) hits
system.cpu.icache.demand_hits::total        687396840                       # number of demand (read+write) hits
system.cpu.icache.overall_hits::cpu.inst    687396840                       # number of overall hits
system.cpu.icache.overall_hits::total       687396840                       # number of overall hits
system.cpu.icache.ReadReq_misses::cpu.inst         1020                       # number of ReadReq misses
system.cpu.icache.ReadReq_misses::total          1020                       # number of ReadReq misses
system.cpu.icache.demand_misses::cpu.inst         1020                       # number of demand (read+write) misses
system.cpu.icache.demand_misses::total           1020                       # number of demand (read+write) misses
system.cpu.icache.overall_misses::cpu.inst         1020                       # number of overall misses
system.cpu.icache.overall_misses::total          1020                       # number of overall misses
system.cpu.icache.ReadReq_miss_latency::cpu.inst     78220500                       # number of ReadReq miss cycles
system.cpu.icache.ReadReq_miss_latency::total     78220500                       # number of ReadReq miss cycles
system.cpu.icache.demand_miss_latency::cpu.inst     78220500                       # number of demand (read+write) miss cycles
system.cpu.icache.demand_miss_latency::total     78220500                       # number of demand (read+write) miss cycles
system.cpu.icache.overall_miss_latency::cpu.inst     78220500                       # number of overall miss cycles
system.cpu.icache.overall_miss_latency::total     78220500                       # number of overall miss cycles
system.cpu.icache.ReadReq_accesses::cpu.inst    687397860                       # number of ReadReq accesses(hits+misses)
system.cpu.icache.ReadReq_accesses::total    687397860                       # number of ReadReq accesses(hits+misses)
system.cpu.icache.demand_accesses::cpu.inst    687397860                       # number of demand (read+write) accesses
system.cpu.icache.demand_accesses::total    687397860                       # number of demand (read+write) accesses
system.cpu.icache.overall_accesses::cpu.inst    687397860                       # number of overall (read+write) accesses
system.cpu.icache.overall_accesses::total    687397860                       # number of overall (read+write) accesses
system.cpu.icache.ReadReq_miss_rate::cpu.inst     0.000001                       # miss rate for ReadReq accesses
system.cpu.icache.ReadReq_miss_rate::total     0.000001                       # miss rate for ReadReq accesses
system.cpu.icache.demand_miss_rate::cpu.inst     0.000001                       # miss rate for demand accesses
system.cpu.icache.demand_miss_rate::total     0.000001                       # miss rate for demand accesses
system.cpu.icache.overall_miss_rate::cpu.inst     0.000001                       # miss rate for overall accesses
system.cpu.icache.overall_miss_rate::total     0.000001                       # miss rate for overall accesses
system.cpu.icache.ReadReq_avg_miss_latency::cpu.inst 76686.764706                       # average ReadReq miss latency
system.cpu.icache.ReadReq_avg_miss_latency::total 76686.764706                       # average ReadReq miss latency
system.cpu.icache.demand_avg_miss_latency::cpu.inst 76686.764706                       # average overall miss latency
system.cpu.icache.demand_avg_miss_latency::total 76686.764706                       # average overall miss latency
system.cpu.icache.overall_avg_miss_latency::cpu.inst 76686.764706                       # average overall miss latency
system.cpu.icache.overall_avg_miss_latency::total 76686.764706                       # average overall miss latency
system.cpu.icache.blocked_cycles::no_mshrs            0                       # number of cycles access was blocked
system.cpu.icache.blocked_cycles::no_targets            0                       # number of cycles access was blocked
system.cpu.icache.blocked::no_mshrs                 0                       # number of cycles access was blocked
system.cpu.icache.blocked::no_targets               0                       # number of cycles access was blocked
system.cpu.icache.avg_blocked_cycles::no_mshrs          nan                       # average number of cycles each access was blocked
system.cpu.icache.avg_blocked_cycles::no_targets          nan                       # average number of cycles each access was blocked
system.cpu.icache.fast_writes                       0                       # number of fast writes performed
system.cpu.icache.cache_copies                      0                       # number of cache copies performed
system.cpu.icache.writebacks::writebacks          142                       # number of writebacks
system.cpu.icache.writebacks::total               142                       # number of writebacks
system.cpu.icache.ReadReq_mshr_misses::cpu.inst         1020                       # number of ReadReq MSHR misses
system.cpu.icache.ReadReq_mshr_misses::total         1020                       # number of ReadReq MSHR misses
system.cpu.icache.demand_mshr_misses::cpu.inst         1020                       # number of demand (read+write) MSHR misses
system.cpu.icache.demand_mshr_misses::total         1020                       # number of demand (read+write) MSHR misses
system.cpu.icache.overall_mshr_misses::cpu.inst         1020                       # number of overall MSHR misses
system.cpu.icache.overall_mshr_misses::total         1020                       # number of overall MSHR misses
system.cpu.icache.ReadReq_mshr_miss_latency::cpu.inst     77200500                       # number of ReadReq MSHR miss cycles
system.cpu.icache.ReadReq_mshr_miss_latency::total     77200500                       # number of ReadReq MSHR miss cycles
system.cpu.icache.demand_mshr_miss_latency::cpu.inst     77200500                       # number of demand (read+write) MSHR miss cycles
system.cpu.icache.demand_mshr_miss_latency::total     77200500                       # number of demand (read+write) MSHR miss cycles
system.cpu.icache.overall_mshr_miss_latency::cpu.inst     77200500                       # number of overall MSHR miss cycles
system.cpu.icache.overall_mshr_miss_latency::total     77200500                       # number of overall MSHR miss cycles
system.cpu.icache.ReadReq_mshr_miss_rate::cpu.inst     0.000001                       # mshr miss rate for ReadReq accesses
system.cpu.icache.ReadReq_mshr_miss_rate::total     0.000001                       # mshr miss rate for ReadReq accesses
system.cpu.icache.demand_mshr_miss_rate::cpu.inst     0.000001                       # mshr miss rate for demand accesses
system.cpu.icache.demand_mshr_miss_rate::total     0.000001                       # mshr miss rate for demand accesses
system.cpu.icache.overall_mshr_miss_rate::cpu.inst     0.000001                       # mshr miss rate for overall accesses
system.cpu.icache.overall_mshr_miss_rate::total     0.000001                       # mshr miss rate for overall accesses
system.cpu.icache.ReadReq_avg_mshr_miss_latency::cpu.inst 75686.764706                       # average ReadReq mshr miss latency
system.cpu.icache.ReadReq_avg_mshr_miss_latency::total 75686.764706                       # average ReadReq mshr miss latency
system.cpu.icache.demand_avg_mshr_miss_latency::cpu.inst 75686.764706                       # average overall mshr miss latency
system.cpu.icache.demand_avg_mshr_miss_latency::total 75686.764706                       # average overall mshr miss latency
system.cpu.icache.overall_avg_mshr_miss_latency::cpu.inst 75686.764706                       # average overall mshr miss latency
system.cpu.icache.overall_avg_mshr_miss_latency::total 75686.764706                       # average overall mshr miss latency
system.cpu.icache.no_allocate_misses                0                       # Number of misses that were no-allocate
system.cpu.itb_walker_cache.tags.replacements            0                       # number of replacements
system.cpu.itb_walker_cache.tags.tagsinuse            0                       # Cycle average of tags in use
system.cpu.itb_walker_cache.tags.total_refs            0                       # Total number of references to valid blocks.
system.cpu.itb_walker_cache.tags.sampled_refs            0                       # Sample count of references to valid blocks.
system.cpu.itb_walker_cache.tags.avg_refs          nan                       # Average number of references to valid blocks.
system.cpu.itb_walker_cache.tags.warmup_cycle            0                       # Cycle when the warmup percentage was hit.
system.cpu.itb_walker_cache.tags.tag_accesses            0                       # Number of tag accesses
system.cpu.itb_walker_cache.tags.data_accesses            0                       # Number of data accesses
system.cpu.itb_walker_cache.blocked_cycles::no_mshrs            0                       # number of cycles access was blocked
system.cpu.itb_walker_cache.blocked_cycles::no_targets            0                       # number of cycles access was blocked
system.cpu.itb_walker_cache.blocked::no_mshrs            0                       # number of cycles access was blocked
system.cpu.itb_walker_cache.blocked::no_targets            0                       # number of cycles access was blocked
system.cpu.itb_walker_cache.avg_blocked_cycles::no_mshrs          nan                       # average number of cycles each access was blocked
system.cpu.itb_walker_cache.avg_blocked_cycles::no_targets          nan                       # average number of cycles each access was blocked
system.cpu.itb_walker_cache.fast_writes             0                       # number of fast writes performed
system.cpu.itb_walker_cache.cache_copies            0                       # number of cache copies performed
system.cpu.itb_walker_cache.no_allocate_misses            0                       # Number of misses that were no-allocate
system.l2.tags.replacements                    757193                       # number of replacements
system.l2.tags.tagsinuse                 15645.748295                       # Cycle average of tags in use
system.l2.tags.total_refs                     2657858                       # Total number of references to valid blocks.
system.l2.tags.sampled_refs                    773113                       # Sample count of references to valid blocks.
system.l2.tags.avg_refs                      3.437865                       # Average number of references to valid blocks.
system.l2.tags.warmup_cycle              133436554500                       # Cycle when the warmup percentage was hit.
system.l2.tags.occ_blocks::writebacks     7491.904614                       # Average occupied blocks per requestor
system.l2.tags.occ_blocks::cpu.inst          4.189523                       # Average occupied blocks per requestor
system.l2.tags.occ_blocks::cpu.data       8149.654158                       # Average occupied blocks per requestor
system.l2.tags.occ_percent::writebacks       0.457270                       # Average percentage of cache occupancy
system.l2.tags.occ_percent::cpu.inst         0.000256                       # Average percentage of cache occupancy
system.l2.tags.occ_percent::cpu.data         0.497415                       # Average percentage of cache occupancy
system.l2.tags.occ_percent::total            0.954941                       # Average percentage of cache occupancy
system.l2.tags.occ_task_id_blocks::1024         15920                       # Occupied blocks per task id
system.l2.tags.age_task_id_blocks_1024::1           15                       # Occupied blocks per task id
system.l2.tags.age_task_id_blocks_1024::2           10                       # Occupied blocks per task id
system.l2.tags.age_task_id_blocks_1024::3           61                       # Occupied blocks per task id
system.l2.tags.age_task_id_blocks_1024::4        15834                       # Occupied blocks per task id
system.l2.tags.occ_task_id_percent::1024     0.971680                       # Percentage of cache occupancy per task id
system.l2.tags.tag_accesses                   5450387                       # Number of tag accesses
system.l2.tags.data_accesses                  5450387                       # Number of data accesses
system.l2.WritebackDirty_hits::writebacks       948195                       # number of WritebackDirty hits
system.l2.WritebackDirty_hits::total           948195                       # number of WritebackDirty hits
system.l2.WritebackClean_hits::writebacks          142                       # number of WritebackClean hits
system.l2.WritebackClean_hits::total              142                       # number of WritebackClean hits
system.l2.ReadExReq_hits::cpu.data             280618                       # number of ReadExReq hits
system.l2.ReadExReq_hits::total                280618                       # number of ReadExReq hits
system.l2.ReadCleanReq_hits::cpu.inst              14                       # number of ReadCleanReq hits
system.l2.ReadCleanReq_hits::total                 14                       # number of ReadCleanReq hits
system.l2.ReadSharedReq_hits::cpu.data        1013603                       # number of ReadSharedReq hits
system.l2.ReadSharedReq_hits::total           1013603                       # number of ReadSharedReq hits
system.l2.demand_hits::cpu.inst                    14                       # number of demand (read+write) hits
system.l2.demand_hits::cpu.data               1294221                       # number of demand (read+write) hits
system.l2.demand_hits::total                  1294235                       # number of demand (read+write) hits
system.l2.overall_hits::cpu.inst                   14                       # number of overall hits
system.l2.overall_hits::cpu.data              1294221                       # number of overall hits
system.l2.overall_hits::total                 1294235                       # number of overall hits
system.l2.ReadExReq_misses::cpu.data           308385                       # number of ReadExReq misses
system.l2.ReadExReq_misses::total              308385                       # number of ReadExReq misses
system.l2.ReadCleanReq_misses::cpu.inst          1006                       # number of ReadCleanReq misses
system.l2.ReadCleanReq_misses::total             1006                       # number of ReadCleanReq misses
system.l2.ReadSharedReq_misses::cpu.data       441973                       # number of ReadSharedReq misses
system.l2.ReadSharedReq_misses::total          441973                       # number of ReadSharedReq misses
system.l2.demand_misses::cpu.inst                1006                       # number of demand (read+write) misses
system.l2.demand_misses::cpu.data              750358                       # number of demand (read+write) misses
system.l2.demand_misses::total                 751364                       # number of demand (read+write) misses
system.l2.overall_misses::cpu.inst               1006                       # number of overall misses
system.l2.overall_misses::cpu.data             750358                       # number of overall misses
system.l2.overall_misses::total                751364                       # number of overall misses
system.l2.ReadExReq_miss_latency::cpu.data  26293914500                       # number of ReadExReq miss cycles
system.l2.ReadExReq_miss_latency::total   26293914500                       # number of ReadExReq miss cycles
system.l2.ReadCleanReq_miss_latency::cpu.inst     75521500                       # number of ReadCleanReq miss cycles
system.l2.ReadCleanReq_miss_latency::total     75521500                       # number of ReadCleanReq miss cycles
system.l2.ReadSharedReq_miss_latency::cpu.data  36192557000                       # number of ReadSharedReq miss cycles
system.l2.ReadSharedReq_miss_latency::total  36192557000                       # number of ReadSharedReq miss cycles
system.l2.demand_miss_latency::cpu.inst      75521500                       # number of demand (read+write) miss cycles
system.l2.demand_miss_latency::cpu.data   62486471500                       # number of demand (read+write) miss cycles
system.l2.demand_miss_latency::total      62561993000                       # number of demand (read+write) miss cycles
system.l2.overall_miss_latency::cpu.inst     75521500                       # number of overall miss cycles
system.l2.overall_miss_latency::cpu.data  62486471500                       # number of overall miss cycles
system.l2.overall_miss_latency::total     62561993000                       # number of overall miss cycles
system.l2.WritebackDirty_accesses::writebacks       948195                       # number of WritebackDirty accesses(hits+misses)
system.l2.WritebackDirty_accesses::total       948195                       # number of WritebackDirty accesses(hits+misses)
system.l2.WritebackClean_accesses::writebacks          142                       # number of WritebackClean accesses(hits+misses)
system.l2.WritebackClean_accesses::total          142                       # number of WritebackClean accesses(hits+misses)
system.l2.ReadExReq_accesses::cpu.data         589003                       # number of ReadExReq accesses(hits+misses)
system.l2.ReadExReq_accesses::total            589003                       # number of ReadExReq accesses(hits+misses)
system.l2.ReadCleanReq_accesses::cpu.inst         1020                       # number of ReadCleanReq accesses(hits+misses)
system.l2.ReadCleanReq_accesses::total           1020                       # number of ReadCleanReq accesses(hits+misses)
system.l2.ReadSharedReq_accesses::cpu.data      1455576                       # number of ReadSharedReq accesses(hits+misses)
system.l2.ReadSharedReq_accesses::total       1455576                       # number of ReadSharedReq accesses(hits+misses)
system.l2.demand_accesses::cpu.inst              1020                       # number of demand (read+write) accesses
system.l2.demand_accesses::cpu.data           2044579                       # number of demand (read+write) accesses
system.l2.demand_accesses::total              2045599                       # number of demand (read+write) accesses
system.l2.overall_accesses::cpu.inst             1020                       # number of overall (read+write) accesses
system.l2.overall_accesses::cpu.data          2044579                       # number of overall (read+write) accesses
system.l2.overall_accesses::total             2045599                       # number of overall (read+write) accesses
system.l2.ReadExReq_miss_rate::cpu.data      0.523571                       # miss rate for ReadExReq accesses
system.l2.ReadExReq_miss_rate::total         0.523571                       # miss rate for ReadExReq accesses
system.l2.ReadCleanReq_miss_rate::cpu.inst     0.986275                       # miss rate for ReadCleanReq accesses
system.l2.ReadCleanReq_miss_rate::total      0.986275                       # miss rate for ReadCleanReq accesses
system.l2.ReadSharedReq_miss_rate::cpu.data     0.303641                       # miss rate for ReadSharedReq accesses
system.l2.ReadSharedReq_miss_rate::total     0.303641                       # miss rate for ReadSharedReq accesses
system.l2.demand_miss_rate::cpu.inst         0.986275                       # miss rate for demand accesses
system.l2.demand_miss_rate::cpu.data         0.366999                       # miss rate for demand accesses
system.l2.demand_miss_rate::total            0.367308                       # miss rate for demand accesses
system.l2.overall_miss_rate::cpu.inst        0.986275                       # miss rate for overall accesses
system.l2.overall_miss_rate::cpu.data        0.366999                       # miss rate for overall accesses
system.l2.overall_miss_rate::total           0.367308                       # miss rate for overall accesses
system.l2.ReadExReq_avg_miss_latency::cpu.data 85263.273181                       # average ReadExReq miss latency
system.l2.ReadExReq_avg_miss_latency::total 85263.273181                       # average ReadExReq miss latency
system.l2.ReadCleanReq_avg_miss_latency::cpu.inst 75071.073559                       # average ReadCleanReq miss latency
system.l2.ReadCleanReq_avg_miss_latency::total 75071.073559                       # average ReadCleanReq miss latency
system.l2.ReadSharedReq_avg_miss_latency::cpu.data 81888.615368                       # average ReadSharedReq miss latency
system.l2.ReadSharedReq_avg_miss_latency::total 81888.615368                       # average ReadSharedReq miss latency
system.l2.demand_avg_miss_latency::cpu.inst 75071.073559                       # average overall miss latency
system.l2.demand_avg_miss_latency::cpu.data 83275.545140                       # average overall miss latency
system.l2.demand_avg_miss_latency::total 83264.560187                       # average overall miss latency
system.l2.overall_avg_miss_latency::cpu.inst 75071.073559                       # average overall miss latency
system.l2.overall_avg_miss_latency::cpu.data 83275.545140                       # average overall miss latency
system.l2.overall_avg_miss_latency::total 83264.560187                       # average overall miss latency
system.l2.blocked_cycles::no_mshrs                  0                       # number of cycles access was blocked
system.l2.blocked_cycles::no_targets                0                       # number of cycles access was blocked
system.l2.blocked::no_mshrs                         0                       # number of cycles access was blocked
system.l2.blocked::no_targets                       0                       # number of cycles access was blocked
system.l2.avg_blocked_cycles::no_mshrs            nan                       # average number of cycles each access was blocked
system.l2.avg_blocked_cycles::no_targets          nan                       # average number of cycles each access was blocked
system.l2.fast_writes                               0                       # number of fast writes performed
system.l2.cache_copies                              0                       # number of cache copies performed
system.l2.writebacks::writebacks               388696                       # number of writebacks
system.l2.writebacks::total                    388696                       # number of writebacks
system.l2.CleanEvict_mshr_misses::writebacks        68072                       # number of CleanEvict MSHR misses
system.l2.CleanEvict_mshr_misses::total         68072                       # number of CleanEvict MSHR misses
system.l2.ReadExReq_mshr_misses::cpu.data       308385                       # number of ReadExReq MSHR misses
system.l2.ReadExReq_mshr_misses::total         308385                       # number of ReadExReq MSHR misses
system.l2.ReadCleanReq_mshr_misses::cpu.inst         1006                       # number of ReadCleanReq MSHR misses
system.l2.ReadCleanReq_mshr_misses::total         1006                       # number of ReadCleanReq MSHR misses
system.l2.ReadSharedReq_mshr_misses::cpu.data       441973                       # number of ReadSharedReq MSHR misses
system.l2.ReadSharedReq_mshr_misses::total       441973                       # number of ReadSharedReq MSHR misses
system.l2.demand_mshr_misses::cpu.inst           1006                       # number of demand (read+write) MSHR misses
system.l2.demand_mshr_misses::cpu.data         750358                       # number of demand (read+write) MSHR misses
system.l2.demand_mshr_misses::total            751364                       # number of demand (read+write) MSHR misses
system.l2.overall_mshr_misses::cpu.inst          1006                       # number of overall MSHR misses
system.l2.overall_mshr_misses::cpu.data        750358                       # number of overall MSHR misses
system.l2.overall_mshr_misses::total           751364                       # number of overall MSHR misses
system.l2.ReadExReq_mshr_miss_latency::cpu.data  23210064500                       # number of ReadExReq MSHR miss cycles
system.l2.ReadExReq_mshr_miss_latency::total  23210064500                       # number of ReadExReq MSHR miss cycles
system.l2.ReadCleanReq_mshr_miss_latency::cpu.inst     65461500                       # number of ReadCleanReq MSHR miss cycles
system.l2.ReadCleanReq_mshr_miss_latency::total     65461500                       # number of ReadCleanReq MSHR miss cycles
system.l2.ReadSharedReq_mshr_miss_latency::cpu.data  31772827000                       # number of ReadSharedReq MSHR miss cycles
system.l2.ReadSharedReq_mshr_miss_latency::total  31772827000                       # number of ReadSharedReq MSHR miss cycles
system.l2.demand_mshr_miss_latency::cpu.inst     65461500                       # number of demand (read+write) MSHR miss cycles
system.l2.demand_mshr_miss_latency::cpu.data  54982891500                       # number of demand (read+write) MSHR miss cycles
system.l2.demand_mshr_miss_latency::total  55048353000                       # number of demand (read+write) MSHR miss cycles
system.l2.overall_mshr_miss_latency::cpu.inst     65461500                       # number of overall MSHR miss cycles
system.l2.overall_mshr_miss_latency::cpu.data  54982891500                       # number of overall MSHR miss cycles
system.l2.overall_mshr_miss_latency::total  55048353000                       # number of overall MSHR miss cycles
system.l2.CleanEvict_mshr_miss_rate::writebacks          inf                       # mshr miss rate for CleanEvict accesses
system.l2.CleanEvict_mshr_miss_rate::total          inf                       # mshr miss rate for CleanEvict accesses
system.l2.ReadExReq_mshr_miss_rate::cpu.data     0.523571                       # mshr miss rate for ReadExReq accesses
system.l2.ReadExReq_mshr_miss_rate::total     0.523571                       # mshr miss rate for ReadExReq accesses
system.l2.ReadCleanReq_mshr_miss_rate::cpu.inst     0.986275                       # mshr miss rate for ReadCleanReq accesses
system.l2.ReadCleanReq_mshr_miss_rate::total     0.986275                       # mshr miss rate for ReadCleanReq accesses
system.l2.ReadSharedReq_mshr_miss_rate::cpu.data     0.303641                       # mshr miss rate for ReadSharedReq accesses
system.l2.ReadSharedReq_mshr_miss_rate::total     0.303641                       # mshr miss rate for ReadSharedReq accesses
system.l2.demand_mshr_miss_rate::cpu.inst     0.986275                       # mshr miss rate for demand accesses
system.l2.demand_mshr_miss_rate::cpu.data     0.366999                       # mshr miss rate for demand accesses
system.l2.demand_mshr_miss_rate::total       0.367308                       # mshr miss rate for demand accesses
system.l2.overall_mshr_miss_rate::cpu.inst     0.986275                       # mshr miss rate for overall accesses
system.l2.overall_mshr_miss_rate::cpu.data     0.366999                       # mshr miss rate for overall accesses
system.l2.overall_mshr_miss_rate::total      0.367308                       # mshr miss rate for overall accesses
system.l2.ReadExReq_avg_mshr_miss_latency::cpu.data 75263.273181                       # average ReadExReq mshr miss latency
system.l2.ReadExReq_avg_mshr_miss_latency::total 75263.273181                       # average ReadExReq mshr miss latency
system.l2.ReadCleanReq_avg_mshr_miss_latency::cpu.inst 65071.073559                       # average ReadCleanReq mshr miss latency
system.l2.ReadCleanReq_avg_mshr_miss_latency::total 65071.073559                       # average ReadCleanReq mshr miss latency
system.l2.ReadSharedReq_avg_mshr_miss_latency::cpu.data 71888.615368                       # average ReadSharedReq mshr miss latency
system.l2.ReadSharedReq_avg_mshr_miss_latency::total 71888.615368                       # average ReadSharedReq mshr miss latency
system.l2.demand_avg_mshr_miss_latency::cpu.inst 65071.073559                       # average overall mshr miss latency
system.l2.demand_avg_mshr_miss_latency::cpu.data 73275.545140                       # average overall mshr miss latency
system.l2.demand_avg_mshr_miss_latency::total 73264.560187                       # average overall mshr miss latency
system.l2.overall_avg_mshr_miss_latency::cpu.inst 65071.073559                       # average overall mshr miss latency
system.l2.overall_avg_mshr_miss_latency::cpu.data 73275.545140                       # average overall mshr miss latency
system.l2.overall_avg_mshr_miss_latency::total 73264.560187                       # average overall mshr miss latency
system.l2.no_allocate_misses                        0                       # Number of misses that were no-allocate
system.membus.trans_dist::ReadResp             442979                       # Transaction distribution
system.membus.trans_dist::WritebackDirty       388696                       # Transaction distribution
system.membus.trans_dist::CleanEvict           345445                       # Transaction distribution
system.membus.trans_dist::ReadExReq            308385                       # Transaction distribution
system.membus.trans_dist::ReadExResp           308385                       # Transaction distribution
system.membus.trans_dist::ReadSharedReq        442979                       # Transaction distribution
system.membus.pkt_count_system.l2.mem_side::system.mem_ctrls.port      2236869                       # Packet count per connected master and slave (bytes)
system.membus.pkt_count_system.l2.mem_side::total      2236869                       # Packet count per connected master and slave (bytes)
system.membus.pkt_count::total                2236869                       # Packet count per connected master and slave (bytes)
system.membus.pkt_size_system.l2.mem_side::system.mem_ctrls.port     72963840                       # Cumulative packet size per connected master and slave (bytes)
system.membus.pkt_size_system.l2.mem_side::total     72963840                       # Cumulative packet size per connected master and slave (bytes)
system.membus.pkt_size::total                72963840                       # Cumulative packet size per connected master and slave (bytes)
system.membus.snoops                                0                       # Total snoops (count)
system.membus.snoop_fanout::samples           1485505                       # Request fanout histogram
system.membus.snoop_fanout::mean                    0                       # Request fanout histogram
system.membus.snoop_fanout::stdev                   0                       # Request fanout histogram
system.membus.snoop_fanout::underflows              0      0.00%      0.00% # Request fanout histogram
system.membus.snoop_fanout::0                 1485505    100.00%    100.00% # Request fanout histogram
system.membus.snoop_fanout::1                       0      0.00%    100.00% # Request fanout histogram
system.membus.snoop_fanout::overflows               0      0.00%    100.00% # Request fanout histogram
system.membus.snoop_fanout::min_value               0                       # Request fanout histogram
system.membus.snoop_fanout::max_value               0                       # Request fanout histogram
system.membus.snoop_fanout::total             1485505                       # Request fanout histogram
system.membus.reqLayer2.occupancy          3048272000                       # Layer occupancy (ticks)
system.membus.reqLayer2.utilization               0.3                       # Layer utilization (%)
system.membus.respLayer1.occupancy         4065157000                       # Layer occupancy (ticks)
system.membus.respLayer1.utilization              0.4                       # Layer utilization (%)
system.tol2bus.snoop_filter.tot_requests      4088272                       # Total number of requests made to the snoop filter.
system.tol2bus.snoop_filter.hit_single_requests      2042673                       # Number of requests hitting in the snoop filter with a single holder of the requested data.
system.tol2bus.snoop_filter.hit_multi_requests            1                       # Number of requests hitting in the snoop filter with multiple (>1) holders of the requested data.
system.tol2bus.snoop_filter.tot_snoops          91124                       # Total number of snoops made to the snoop filter.
system.tol2bus.snoop_filter.hit_single_snoops        91124                       # Number of snoops hitting in the snoop filter with a single holder of the requested data.
system.tol2bus.snoop_filter.hit_multi_snoops            0                       # Number of snoops hitting in the snoop filter with multiple (>1) holders of the requested data.
system.tol2bus.trans_dist::ReadResp           1456596                       # Transaction distribution
system.tol2bus.trans_dist::WritebackDirty      1336891                       # Transaction distribution
system.tol2bus.trans_dist::WritebackClean          142                       # Transaction distribution
system.tol2bus.trans_dist::CleanEvict         1462832                       # Transaction distribution
system.tol2bus.trans_dist::ReadExReq           589003                       # Transaction distribution
system.tol2bus.trans_dist::ReadExResp          589003                       # Transaction distribution
system.tol2bus.trans_dist::ReadCleanReq          1020                       # Transaction distribution
system.tol2bus.trans_dist::ReadSharedReq      1455576                       # Transaction distribution
system.tol2bus.pkt_count_system.cpu.icache.mem_side::system.l2.cpu_side         2182                       # Packet count per connected master and slave (bytes)
system.tol2bus.pkt_count_system.cpu.dcache.mem_side::system.l2.cpu_side      6131688                       # Packet count per connected master and slave (bytes)
system.tol2bus.pkt_count::total               6133870                       # Packet count per connected master and slave (bytes)
system.tol2bus.pkt_size_system.cpu.icache.mem_side::system.l2.cpu_side        74368                       # Cumulative packet size per connected master and slave (bytes)
system.tol2bus.pkt_size_system.cpu.dcache.mem_side::system.l2.cpu_side    191537536                       # Cumulative packet size per connected master and slave (bytes)
system.tol2bus.pkt_size::total              191611904                       # Cumulative packet size per connected master and slave (bytes)
system.tol2bus.snoops                          757193                       # Total snoops (count)
system.tol2bus.snoop_fanout::samples          2802792                       # Request fanout histogram
system.tol2bus.snoop_fanout::mean            0.032512                       # Request fanout histogram
system.tol2bus.snoop_fanout::stdev           0.177356                       # Request fanout histogram
system.tol2bus.snoop_fanout::underflows             0      0.00%      0.00% # Request fanout histogram
system.tol2bus.snoop_fanout::0                2711667     96.75%     96.75% # Request fanout histogram
system.tol2bus.snoop_fanout::1                  91125      3.25%    100.00% # Request fanout histogram
system.tol2bus.snoop_fanout::2                      0      0.00%    100.00% # Request fanout histogram
system.tol2bus.snoop_fanout::3                      0      0.00%    100.00% # Request fanout histogram
system.tol2bus.snoop_fanout::4                      0      0.00%    100.00% # Request fanout histogram
system.tol2bus.snoop_fanout::overflows              0      0.00%    100.00% # Request fanout histogram
system.tol2bus.snoop_fanout::min_value              0                       # Request fanout histogram
system.tol2bus.snoop_fanout::max_value              1                       # Request fanout histogram
system.tol2bus.snoop_fanout::total            2802792                       # Request fanout histogram
system.tol2bus.reqLayer0.occupancy         2992473000                       # Layer occupancy (ticks)
system.tol2bus.reqLayer0.utilization              0.3                       # Layer utilization (%)
system.tol2bus.respLayer0.occupancy           1530000                       # Layer occupancy (ticks)
system.tol2bus.respLayer0.utilization             0.0                       # Layer utilization (%)
system.tol2bus.respLayer1.occupancy        3066868500                       # Layer occupancy (ticks)
system.tol2bus.respLayer1.utilization             0.3                       # Layer utilization (%)

---------- End Simulation Statistics   ----------
