
---------- Begin Simulation Statistics ----------
sim_seconds                                  1.098182                       # Number of seconds simulated
sim_ticks                                1098181796500                       # Number of ticks simulated
final_tick                               1098181796500                       # Number of ticks from beginning of simulation (restored from checkpoints and never reset)
sim_freq                                 1000000000000                       # Frequency of simulated ticks
host_inst_rate                                  37967                       # Simulator instruction rate (inst/s)
host_op_rate                                    55466                       # Simulator op (including micro ops) rate (op/s)
host_tick_rate                               83389729                       # Simulator tick rate (ticks/s)
host_mem_usage                                 828672                       # Number of bytes of host memory used
host_seconds                                 13169.27                       # Real time elapsed on the host
sim_insts                                   500000001                       # Number of instructions simulated
sim_ops                                     730450447                       # Number of ops (including micro ops) simulated
system.voltage_domain.voltage                       1                       # Voltage in Volts
system.clk_domain.clock                          1000                       # Clock period in ticks
system.mem_ctrls.bytes_read::cpu.inst           63552                       # Number of bytes read from this memory
system.mem_ctrls.bytes_read::cpu.data        48687680                       # Number of bytes read from this memory
system.mem_ctrls.bytes_read::total           48751232                       # Number of bytes read from this memory
system.mem_ctrls.bytes_inst_read::cpu.inst        63552                       # Number of instructions bytes read from this memory
system.mem_ctrls.bytes_inst_read::total         63552                       # Number of instructions bytes read from this memory
system.mem_ctrls.bytes_written::writebacks     25983808                       # Number of bytes written to this memory
system.mem_ctrls.bytes_written::total        25983808                       # Number of bytes written to this memory
system.mem_ctrls.num_reads::cpu.inst              993                       # Number of read requests responded to by this memory
system.mem_ctrls.num_reads::cpu.data           760745                       # Number of read requests responded to by this memory
system.mem_ctrls.num_reads::total              761738                       # Number of read requests responded to by this memory
system.mem_ctrls.num_writes::writebacks        405997                       # Number of write requests responded to by this memory
system.mem_ctrls.num_writes::total             405997                       # Number of write requests responded to by this memory
system.mem_ctrls.bw_read::cpu.inst              57870                       # Total read bandwidth from this memory (bytes/s)
system.mem_ctrls.bw_read::cpu.data           44334809                       # Total read bandwidth from this memory (bytes/s)
system.mem_ctrls.bw_read::total              44392679                       # Total read bandwidth from this memory (bytes/s)
system.mem_ctrls.bw_inst_read::cpu.inst         57870                       # Instruction read bandwidth from this memory (bytes/s)
system.mem_ctrls.bw_inst_read::total            57870                       # Instruction read bandwidth from this memory (bytes/s)
system.mem_ctrls.bw_write::writebacks        23660753                       # Write bandwidth from this memory (bytes/s)
system.mem_ctrls.bw_write::total             23660753                       # Write bandwidth from this memory (bytes/s)
system.mem_ctrls.bw_total::writebacks        23660753                       # Total bandwidth to/from this memory (bytes/s)
system.mem_ctrls.bw_total::cpu.inst             57870                       # Total bandwidth to/from this memory (bytes/s)
system.mem_ctrls.bw_total::cpu.data          44334809                       # Total bandwidth to/from this memory (bytes/s)
system.mem_ctrls.bw_total::total             68053432                       # Total bandwidth to/from this memory (bytes/s)
system.mem_ctrls.readReqs                      761738                       # Number of read requests accepted
system.mem_ctrls.writeReqs                     405997                       # Number of write requests accepted
system.mem_ctrls.readBursts                    761738                       # Number of DRAM read bursts, including those serviced by the write queue
system.mem_ctrls.writeBursts                   405997                       # Number of DRAM write bursts, including those merged in the write queue
system.mem_ctrls.bytesReadDRAM               48431680                       # Total number of bytes read from DRAM
system.mem_ctrls.bytesReadWrQ                  319552                       # Total number of bytes read from write queue
system.mem_ctrls.bytesWritten                25903680                       # Total number of bytes written to DRAM
system.mem_ctrls.bytesReadSys                48751232                       # Total read bytes from the system interface side
system.mem_ctrls.bytesWrittenSys             25983808                       # Total written bytes from the system interface side
system.mem_ctrls.servicedByWrQ                   4993                       # Number of DRAM read bursts serviced by the write queue
system.mem_ctrls.mergedWrBursts                  1237                       # Number of DRAM write bursts merged with an existing one
system.mem_ctrls.neitherReadNorWriteReqs       338449                       # Number of requests that are neither read nor write
system.mem_ctrls.perBankRdBursts::0             49273                       # Per bank write bursts
system.mem_ctrls.perBankRdBursts::1             47667                       # Per bank write bursts
system.mem_ctrls.perBankRdBursts::2             48617                       # Per bank write bursts
system.mem_ctrls.perBankRdBursts::3             45225                       # Per bank write bursts
system.mem_ctrls.perBankRdBursts::4             45168                       # Per bank write bursts
system.mem_ctrls.perBankRdBursts::5             44246                       # Per bank write bursts
system.mem_ctrls.perBankRdBursts::6             46398                       # Per bank write bursts
system.mem_ctrls.perBankRdBursts::7             45630                       # Per bank write bursts
system.mem_ctrls.perBankRdBursts::8             43253                       # Per bank write bursts
system.mem_ctrls.perBankRdBursts::9             43486                       # Per bank write bursts
system.mem_ctrls.perBankRdBursts::10            47202                       # Per bank write bursts
system.mem_ctrls.perBankRdBursts::11            47681                       # Per bank write bursts
system.mem_ctrls.perBankRdBursts::12            49658                       # Per bank write bursts
system.mem_ctrls.perBankRdBursts::13            49468                       # Per bank write bursts
system.mem_ctrls.perBankRdBursts::14            50189                       # Per bank write bursts
system.mem_ctrls.perBankRdBursts::15            53584                       # Per bank write bursts
system.mem_ctrls.perBankWrBursts::0             26231                       # Per bank write bursts
system.mem_ctrls.perBankWrBursts::1             25619                       # Per bank write bursts
system.mem_ctrls.perBankWrBursts::2             27199                       # Per bank write bursts
system.mem_ctrls.perBankWrBursts::3             24582                       # Per bank write bursts
system.mem_ctrls.perBankWrBursts::4             24182                       # Per bank write bursts
system.mem_ctrls.perBankWrBursts::5             23323                       # Per bank write bursts
system.mem_ctrls.perBankWrBursts::6             24935                       # Per bank write bursts
system.mem_ctrls.perBankWrBursts::7             24798                       # Per bank write bursts
system.mem_ctrls.perBankWrBursts::8             23675                       # Per bank write bursts
system.mem_ctrls.perBankWrBursts::9             23712                       # Per bank write bursts
system.mem_ctrls.perBankWrBursts::10            25088                       # Per bank write bursts
system.mem_ctrls.perBankWrBursts::11            24855                       # Per bank write bursts
system.mem_ctrls.perBankWrBursts::12            25478                       # Per bank write bursts
system.mem_ctrls.perBankWrBursts::13            25819                       # Per bank write bursts
system.mem_ctrls.perBankWrBursts::14            26517                       # Per bank write bursts
system.mem_ctrls.perBankWrBursts::15            28732                       # Per bank write bursts
system.mem_ctrls.numRdRetry                         0                       # Number of times read queue was full causing retry
system.mem_ctrls.numWrRetry                         0                       # Number of times write queue was full causing retry
system.mem_ctrls.totGap                  1098149005500                       # Total gap between requests
system.mem_ctrls.readPktSize::0                     0                       # Read request sizes (log2)
system.mem_ctrls.readPktSize::1                     0                       # Read request sizes (log2)
system.mem_ctrls.readPktSize::2                     0                       # Read request sizes (log2)
system.mem_ctrls.readPktSize::3                     0                       # Read request sizes (log2)
system.mem_ctrls.readPktSize::4                     0                       # Read request sizes (log2)
system.mem_ctrls.readPktSize::5                     0                       # Read request sizes (log2)
system.mem_ctrls.readPktSize::6                761738                       # Read request sizes (log2)
system.mem_ctrls.writePktSize::0                    0                       # Write request sizes (log2)
system.mem_ctrls.writePktSize::1                    0                       # Write request sizes (log2)
system.mem_ctrls.writePktSize::2                    0                       # Write request sizes (log2)
system.mem_ctrls.writePktSize::3                    0                       # Write request sizes (log2)
system.mem_ctrls.writePktSize::4                    0                       # Write request sizes (log2)
system.mem_ctrls.writePktSize::5                    0                       # Write request sizes (log2)
system.mem_ctrls.writePktSize::6               405997                       # Write request sizes (log2)
system.mem_ctrls.rdQLenPdf::0                  748082                       # What read queue length does an incoming req see
system.mem_ctrls.rdQLenPdf::1                    8101                       # What read queue length does an incoming req see
system.mem_ctrls.rdQLenPdf::2                     463                       # What read queue length does an incoming req see
system.mem_ctrls.rdQLenPdf::3                      99                       # What read queue length does an incoming req see
system.mem_ctrls.rdQLenPdf::4                       0                       # What read queue length does an incoming req see
system.mem_ctrls.rdQLenPdf::5                       0                       # What read queue length does an incoming req see
system.mem_ctrls.rdQLenPdf::6                       0                       # What read queue length does an incoming req see
system.mem_ctrls.rdQLenPdf::7                       0                       # What read queue length does an incoming req see
system.mem_ctrls.rdQLenPdf::8                       0                       # What read queue length does an incoming req see
system.mem_ctrls.rdQLenPdf::9                       0                       # What read queue length does an incoming req see
system.mem_ctrls.rdQLenPdf::10                      0                       # What read queue length does an incoming req see
system.mem_ctrls.rdQLenPdf::11                      0                       # What read queue length does an incoming req see
system.mem_ctrls.rdQLenPdf::12                      0                       # What read queue length does an incoming req see
system.mem_ctrls.rdQLenPdf::13                      0                       # What read queue length does an incoming req see
system.mem_ctrls.rdQLenPdf::14                      0                       # What read queue length does an incoming req see
system.mem_ctrls.rdQLenPdf::15                      0                       # What read queue length does an incoming req see
system.mem_ctrls.rdQLenPdf::16                      0                       # What read queue length does an incoming req see
system.mem_ctrls.rdQLenPdf::17                      0                       # What read queue length does an incoming req see
system.mem_ctrls.rdQLenPdf::18                      0                       # What read queue length does an incoming req see
system.mem_ctrls.rdQLenPdf::19                      0                       # What read queue length does an incoming req see
system.mem_ctrls.rdQLenPdf::20                      0                       # What read queue length does an incoming req see
system.mem_ctrls.rdQLenPdf::21                      0                       # What read queue length does an incoming req see
system.mem_ctrls.rdQLenPdf::22                      0                       # What read queue length does an incoming req see
system.mem_ctrls.rdQLenPdf::23                      0                       # What read queue length does an incoming req see
system.mem_ctrls.rdQLenPdf::24                      0                       # What read queue length does an incoming req see
system.mem_ctrls.rdQLenPdf::25                      0                       # What read queue length does an incoming req see
system.mem_ctrls.rdQLenPdf::26                      0                       # What read queue length does an incoming req see
system.mem_ctrls.rdQLenPdf::27                      0                       # What read queue length does an incoming req see
system.mem_ctrls.rdQLenPdf::28                      0                       # What read queue length does an incoming req see
system.mem_ctrls.rdQLenPdf::29                      0                       # What read queue length does an incoming req see
system.mem_ctrls.rdQLenPdf::30                      0                       # What read queue length does an incoming req see
system.mem_ctrls.rdQLenPdf::31                      0                       # What read queue length does an incoming req see
system.mem_ctrls.wrQLenPdf::0                       1                       # What write queue length does an incoming req see
system.mem_ctrls.wrQLenPdf::1                       1                       # What write queue length does an incoming req see
system.mem_ctrls.wrQLenPdf::2                       1                       # What write queue length does an incoming req see
system.mem_ctrls.wrQLenPdf::3                       1                       # What write queue length does an incoming req see
system.mem_ctrls.wrQLenPdf::4                       1                       # What write queue length does an incoming req see
system.mem_ctrls.wrQLenPdf::5                       1                       # What write queue length does an incoming req see
system.mem_ctrls.wrQLenPdf::6                       1                       # What write queue length does an incoming req see
system.mem_ctrls.wrQLenPdf::7                       1                       # What write queue length does an incoming req see
system.mem_ctrls.wrQLenPdf::8                       1                       # What write queue length does an incoming req see
system.mem_ctrls.wrQLenPdf::9                       1                       # What write queue length does an incoming req see
system.mem_ctrls.wrQLenPdf::10                      1                       # What write queue length does an incoming req see
system.mem_ctrls.wrQLenPdf::11                      1                       # What write queue length does an incoming req see
system.mem_ctrls.wrQLenPdf::12                      1                       # What write queue length does an incoming req see
system.mem_ctrls.wrQLenPdf::13                      1                       # What write queue length does an incoming req see
system.mem_ctrls.wrQLenPdf::14                      1                       # What write queue length does an incoming req see
system.mem_ctrls.wrQLenPdf::15                  15799                       # What write queue length does an incoming req see
system.mem_ctrls.wrQLenPdf::16                  16570                       # What write queue length does an incoming req see
system.mem_ctrls.wrQLenPdf::17                  23304                       # What write queue length does an incoming req see
system.mem_ctrls.wrQLenPdf::18                  23292                       # What write queue length does an incoming req see
system.mem_ctrls.wrQLenPdf::19                  23273                       # What write queue length does an incoming req see
system.mem_ctrls.wrQLenPdf::20                  23272                       # What write queue length does an incoming req see
system.mem_ctrls.wrQLenPdf::21                  23270                       # What write queue length does an incoming req see
system.mem_ctrls.wrQLenPdf::22                  23269                       # What write queue length does an incoming req see
system.mem_ctrls.wrQLenPdf::23                  23268                       # What write queue length does an incoming req see
system.mem_ctrls.wrQLenPdf::24                  23269                       # What write queue length does an incoming req see
system.mem_ctrls.wrQLenPdf::25                  23272                       # What write queue length does an incoming req see
system.mem_ctrls.wrQLenPdf::26                  23269                       # What write queue length does an incoming req see
system.mem_ctrls.wrQLenPdf::27                  23272                       # What write queue length does an incoming req see
system.mem_ctrls.wrQLenPdf::28                  23271                       # What write queue length does an incoming req see
system.mem_ctrls.wrQLenPdf::29                  23270                       # What write queue length does an incoming req see
system.mem_ctrls.wrQLenPdf::30                  23268                       # What write queue length does an incoming req see
system.mem_ctrls.wrQLenPdf::31                  23269                       # What write queue length does an incoming req see
system.mem_ctrls.wrQLenPdf::32                  23268                       # What write queue length does an incoming req see
system.mem_ctrls.wrQLenPdf::33                      0                       # What write queue length does an incoming req see
system.mem_ctrls.wrQLenPdf::34                      0                       # What write queue length does an incoming req see
system.mem_ctrls.wrQLenPdf::35                      0                       # What write queue length does an incoming req see
system.mem_ctrls.wrQLenPdf::36                      0                       # What write queue length does an incoming req see
system.mem_ctrls.wrQLenPdf::37                      0                       # What write queue length does an incoming req see
system.mem_ctrls.wrQLenPdf::38                      0                       # What write queue length does an incoming req see
system.mem_ctrls.wrQLenPdf::39                      0                       # What write queue length does an incoming req see
system.mem_ctrls.wrQLenPdf::40                      0                       # What write queue length does an incoming req see
system.mem_ctrls.wrQLenPdf::41                      0                       # What write queue length does an incoming req see
system.mem_ctrls.wrQLenPdf::42                      0                       # What write queue length does an incoming req see
system.mem_ctrls.wrQLenPdf::43                      0                       # What write queue length does an incoming req see
system.mem_ctrls.wrQLenPdf::44                      0                       # What write queue length does an incoming req see
system.mem_ctrls.wrQLenPdf::45                      0                       # What write queue length does an incoming req see
system.mem_ctrls.wrQLenPdf::46                      0                       # What write queue length does an incoming req see
system.mem_ctrls.wrQLenPdf::47                      0                       # What write queue length does an incoming req see
system.mem_ctrls.wrQLenPdf::48                      0                       # What write queue length does an incoming req see
system.mem_ctrls.wrQLenPdf::49                      0                       # What write queue length does an incoming req see
system.mem_ctrls.wrQLenPdf::50                      0                       # What write queue length does an incoming req see
system.mem_ctrls.wrQLenPdf::51                      0                       # What write queue length does an incoming req see
system.mem_ctrls.wrQLenPdf::52                      0                       # What write queue length does an incoming req see
system.mem_ctrls.wrQLenPdf::53                      0                       # What write queue length does an incoming req see
system.mem_ctrls.wrQLenPdf::54                      0                       # What write queue length does an incoming req see
system.mem_ctrls.wrQLenPdf::55                      0                       # What write queue length does an incoming req see
system.mem_ctrls.wrQLenPdf::56                      0                       # What write queue length does an incoming req see
system.mem_ctrls.wrQLenPdf::57                      0                       # What write queue length does an incoming req see
system.mem_ctrls.wrQLenPdf::58                      0                       # What write queue length does an incoming req see
system.mem_ctrls.wrQLenPdf::59                      0                       # What write queue length does an incoming req see
system.mem_ctrls.wrQLenPdf::60                      0                       # What write queue length does an incoming req see
system.mem_ctrls.wrQLenPdf::61                      0                       # What write queue length does an incoming req see
system.mem_ctrls.wrQLenPdf::62                      0                       # What write queue length does an incoming req see
system.mem_ctrls.wrQLenPdf::63                      0                       # What write queue length does an incoming req see
system.mem_ctrls.bytesPerActivate::samples       591393                       # Bytes accessed per row activation
system.mem_ctrls.bytesPerActivate::mean    125.695367                       # Bytes accessed per row activation
system.mem_ctrls.bytesPerActivate::gmean    92.189781                       # Bytes accessed per row activation
system.mem_ctrls.bytesPerActivate::stdev   155.347567                       # Bytes accessed per row activation
system.mem_ctrls.bytesPerActivate::0-127       409576     69.26%     69.26% # Bytes accessed per row activation
system.mem_ctrls.bytesPerActivate::128-255       119030     20.13%     89.38% # Bytes accessed per row activation
system.mem_ctrls.bytesPerActivate::256-383        25919      4.38%     93.77% # Bytes accessed per row activation
system.mem_ctrls.bytesPerActivate::384-511         9828      1.66%     95.43% # Bytes accessed per row activation
system.mem_ctrls.bytesPerActivate::512-639        13457      2.28%     97.70% # Bytes accessed per row activation
system.mem_ctrls.bytesPerActivate::640-767         2147      0.36%     98.07% # Bytes accessed per row activation
system.mem_ctrls.bytesPerActivate::768-895         1668      0.28%     98.35% # Bytes accessed per row activation
system.mem_ctrls.bytesPerActivate::896-1023         1355      0.23%     98.58% # Bytes accessed per row activation
system.mem_ctrls.bytesPerActivate::1024-1151         8413      1.42%    100.00% # Bytes accessed per row activation
system.mem_ctrls.bytesPerActivate::total       591393                       # Bytes accessed per row activation
system.mem_ctrls.rdPerTurnAround::samples        23268                       # Reads before turning the bus around for writes
system.mem_ctrls.rdPerTurnAround::mean      32.510444                       # Reads before turning the bus around for writes
system.mem_ctrls.rdPerTurnAround::gmean     24.722369                       # Reads before turning the bus around for writes
system.mem_ctrls.rdPerTurnAround::stdev    136.185095                       # Reads before turning the bus around for writes
system.mem_ctrls.rdPerTurnAround::0-511         23228     99.83%     99.83% # Reads before turning the bus around for writes
system.mem_ctrls.rdPerTurnAround::512-1023           30      0.13%     99.96% # Reads before turning the bus around for writes
system.mem_ctrls.rdPerTurnAround::1024-1535            4      0.02%     99.97% # Reads before turning the bus around for writes
system.mem_ctrls.rdPerTurnAround::5120-5631            1      0.00%     99.98% # Reads before turning the bus around for writes
system.mem_ctrls.rdPerTurnAround::7168-7679            2      0.01%     99.99% # Reads before turning the bus around for writes
system.mem_ctrls.rdPerTurnAround::7680-8191            1      0.00%     99.99% # Reads before turning the bus around for writes
system.mem_ctrls.rdPerTurnAround::9216-9727            1      0.00%    100.00% # Reads before turning the bus around for writes
system.mem_ctrls.rdPerTurnAround::10752-11263            1      0.00%    100.00% # Reads before turning the bus around for writes
system.mem_ctrls.rdPerTurnAround::total         23268                       # Reads before turning the bus around for writes
system.mem_ctrls.wrPerTurnAround::samples        23268                       # Writes before turning the bus around for reads
system.mem_ctrls.wrPerTurnAround::mean      17.394920                       # Writes before turning the bus around for reads
system.mem_ctrls.wrPerTurnAround::gmean     17.370556                       # Writes before turning the bus around for reads
system.mem_ctrls.wrPerTurnAround::stdev      0.906893                       # Writes before turning the bus around for reads
system.mem_ctrls.wrPerTurnAround::16             6699     28.79%     28.79% # Writes before turning the bus around for reads
system.mem_ctrls.wrPerTurnAround::17              770      3.31%     32.10% # Writes before turning the bus around for reads
system.mem_ctrls.wrPerTurnAround::18            15710     67.52%     99.62% # Writes before turning the bus around for reads
system.mem_ctrls.wrPerTurnAround::19               89      0.38%    100.00% # Writes before turning the bus around for reads
system.mem_ctrls.wrPerTurnAround::total         23268                       # Writes before turning the bus around for reads
system.mem_ctrls.totQLat                  11162534000                       # Total ticks spent queuing
system.mem_ctrls.totMemAccLat             25351502750                       # Total ticks spent from burst creation until serviced by the DRAM
system.mem_ctrls.totBusLat                 3783725000                       # Total ticks spent in databus transfers
system.mem_ctrls.avgQLat                     14750.72                       # Average queueing delay per DRAM burst
system.mem_ctrls.avgBusLat                    5000.00                       # Average bus latency per DRAM burst
system.mem_ctrls.avgMemAccLat                33500.72                       # Average memory access latency per DRAM burst
system.mem_ctrls.avgRdBW                        44.10                       # Average DRAM read bandwidth in MiByte/s
system.mem_ctrls.avgWrBW                        23.59                       # Average achieved write bandwidth in MiByte/s
system.mem_ctrls.avgRdBWSys                     44.39                       # Average system read bandwidth in MiByte/s
system.mem_ctrls.avgWrBWSys                     23.66                       # Average system write bandwidth in MiByte/s
system.mem_ctrls.peakBW                      12800.00                       # Theoretical peak bandwidth in MiByte/s
system.mem_ctrls.busUtil                         0.53                       # Data bus utilization in percentage
system.mem_ctrls.busUtilRead                     0.34                       # Data bus utilization in percentage for reads
system.mem_ctrls.busUtilWrite                    0.18                       # Data bus utilization in percentage for writes
system.mem_ctrls.avgRdQLen                       1.00                       # Average read queue length when enqueuing
system.mem_ctrls.avgWrQLen                      26.36                       # Average write queue length when enqueuing
system.mem_ctrls.readRowHits                   353823                       # Number of row buffer hits during reads
system.mem_ctrls.writeRowHits                  216274                       # Number of row buffer hits during writes
system.mem_ctrls.readRowHitRate                 46.76                       # Row buffer hit rate for reads
system.mem_ctrls.writeRowHitRate                53.43                       # Row buffer hit rate for writes
system.mem_ctrls.avgGap                     940409.43                       # Average gap between requests
system.mem_ctrls.pageHitRate                    49.08                       # Row buffer hit rate, read and write combined
system.mem_ctrls_0.actEnergy               2201456880                       # Energy for activate commands per rank (pJ)
system.mem_ctrls_0.preEnergy               1201191750                       # Energy for precharge commands per rank (pJ)
system.mem_ctrls_0.readEnergy              2903347200                       # Energy for read commands per rank (pJ)
system.mem_ctrls_0.writeEnergy             1301631120                       # Energy for write commands per rank (pJ)
system.mem_ctrls_0.refreshEnergy          71727810960                       # Energy for refresh commands per rank (pJ)
system.mem_ctrls_0.actBackEnergy         235040907330                       # Energy for active background per rank (pJ)
system.mem_ctrls_0.preBackEnergy         452732205000                       # Energy for precharge background per rank (pJ)
system.mem_ctrls_0.totalEnergy           767108550240                       # Total energy per rank (pJ)
system.mem_ctrls_0.averagePower            698.526688                       # Core power per rank (mW)
system.mem_ctrls_0.memoryStateTime::IDLE 751737805750                       # Time in different power states
system.mem_ctrls_0.memoryStateTime::REF   36670660000                       # Time in different power states
system.mem_ctrls_0.memoryStateTime::PRE_PDN            0                       # Time in different power states
system.mem_ctrls_0.memoryStateTime::ACT  309772280500                       # Time in different power states
system.mem_ctrls_0.memoryStateTime::ACT_PDN            0                       # Time in different power states
system.mem_ctrls_1.actEnergy               2269474200                       # Energy for activate commands per rank (pJ)
system.mem_ctrls_1.preEnergy               1238304375                       # Energy for precharge commands per rank (pJ)
system.mem_ctrls_1.readEnergy              2999263800                       # Energy for read commands per rank (pJ)
system.mem_ctrls_1.writeEnergy             1321116480                       # Energy for write commands per rank (pJ)
system.mem_ctrls_1.refreshEnergy          71727810960                       # Energy for refresh commands per rank (pJ)
system.mem_ctrls_1.actBackEnergy         240030517185                       # Energy for active background per rank (pJ)
system.mem_ctrls_1.preBackEnergy         448355354250                       # Energy for precharge background per rank (pJ)
system.mem_ctrls_1.totalEnergy           767941841250                       # Total energy per rank (pJ)
system.mem_ctrls_1.averagePower            699.285481                       # Core power per rank (mW)
system.mem_ctrls_1.memoryStateTime::IDLE 744412552500                       # Time in different power states
system.mem_ctrls_1.memoryStateTime::REF   36670660000                       # Time in different power states
system.mem_ctrls_1.memoryStateTime::PRE_PDN            0                       # Time in different power states
system.mem_ctrls_1.memoryStateTime::ACT  317097533750                       # Time in different power states
system.mem_ctrls_1.memoryStateTime::ACT_PDN            0                       # Time in different power states
system.cpu_voltage_domain.voltage                   1                       # Voltage in Volts
system.cpu_clk_domain.clock                       500                       # Clock period in ticks
system.cpu.apic_clk_domain.clock                 8000                       # Clock period in ticks
system.cpu.workload.num_syscalls                   86                       # Number of system calls
system.cpu.numCycles                       2196363593                       # number of cpu cycles simulated
system.cpu.numWorkItemsStarted                      0                       # number of work items this cpu started
system.cpu.numWorkItemsCompleted                    0                       # number of work items this cpu completed
system.cpu.committedInsts                   500000001                       # Number of instructions committed
system.cpu.committedOps                     730450447                       # Number of ops (including micro ops) committed
system.cpu.num_int_alu_accesses             729688907                       # Number of integer alu accesses
system.cpu.num_fp_alu_accesses                    663                       # Number of float alu accesses
system.cpu.num_func_calls                     1453961                       # number of times a function call or return occured
system.cpu.num_conditional_control_insts     31770496                       # number of instructions that are conditional controls
system.cpu.num_int_insts                    729688907                       # number of integer instructions
system.cpu.num_fp_insts                           663                       # number of float instructions
system.cpu.num_int_register_reads          1698743410                       # number of times the integer registers were read
system.cpu.num_int_register_writes          621892952                       # number of times the integer registers were written
system.cpu.num_fp_register_reads                 1009                       # number of times the floating registers were read
system.cpu.num_fp_register_writes                 429                       # number of times the floating registers were written
system.cpu.num_cc_register_reads            180840558                       # number of times the CC registers were read
system.cpu.num_cc_register_writes           276245127                       # number of times the CC registers were written
system.cpu.num_mem_refs                     295985459                       # number of memory refs
system.cpu.num_load_insts                   225946750                       # Number of load instructions
system.cpu.num_store_insts                   70038709                       # Number of store instructions
system.cpu.num_idle_cycles                          0                       # Number of idle cycles
system.cpu.num_busy_cycles                 2196363593                       # Number of busy cycles
system.cpu.not_idle_fraction                        1                       # Percentage of non-idle cycles
system.cpu.idle_fraction                            0                       # Percentage of idle cycles
system.cpu.Branches                          37843296                       # Number of branches fetched
system.cpu.op_class::No_OpClass                 94739      0.01%      0.01% # Class of executed instruction
system.cpu.op_class::IntAlu                 434349070     59.46%     59.48% # Class of executed instruction
system.cpu.op_class::IntMult                    20662      0.00%     59.48% # Class of executed instruction
system.cpu.op_class::IntDiv                       119      0.00%     59.48% # Class of executed instruction
system.cpu.op_class::FloatAdd                     398      0.00%     59.48% # Class of executed instruction
system.cpu.op_class::FloatCmp                       0      0.00%     59.48% # Class of executed instruction
system.cpu.op_class::FloatCvt                       0      0.00%     59.48% # Class of executed instruction
system.cpu.op_class::FloatMult                      0      0.00%     59.48% # Class of executed instruction
system.cpu.op_class::FloatDiv                       0      0.00%     59.48% # Class of executed instruction
system.cpu.op_class::FloatSqrt                      0      0.00%     59.48% # Class of executed instruction
system.cpu.op_class::SimdAdd                        0      0.00%     59.48% # Class of executed instruction
system.cpu.op_class::SimdAddAcc                     0      0.00%     59.48% # Class of executed instruction
system.cpu.op_class::SimdAlu                        0      0.00%     59.48% # Class of executed instruction
system.cpu.op_class::SimdCmp                        0      0.00%     59.48% # Class of executed instruction
system.cpu.op_class::SimdCvt                        0      0.00%     59.48% # Class of executed instruction
system.cpu.op_class::SimdMisc                       0      0.00%     59.48% # Class of executed instruction
system.cpu.op_class::SimdMult                       0      0.00%     59.48% # Class of executed instruction
system.cpu.op_class::SimdMultAcc                    0      0.00%     59.48% # Class of executed instruction
system.cpu.op_class::SimdShift                      0      0.00%     59.48% # Class of executed instruction
system.cpu.op_class::SimdShiftAcc                   0      0.00%     59.48% # Class of executed instruction
system.cpu.op_class::SimdSqrt                       0      0.00%     59.48% # Class of executed instruction
system.cpu.op_class::SimdFloatAdd                   0      0.00%     59.48% # Class of executed instruction
system.cpu.op_class::SimdFloatAlu                   0      0.00%     59.48% # Class of executed instruction
system.cpu.op_class::SimdFloatCmp                   0      0.00%     59.48% # Class of executed instruction
system.cpu.op_class::SimdFloatCvt                   0      0.00%     59.48% # Class of executed instruction
system.cpu.op_class::SimdFloatDiv                   0      0.00%     59.48% # Class of executed instruction
system.cpu.op_class::SimdFloatMisc                  0      0.00%     59.48% # Class of executed instruction
system.cpu.op_class::SimdFloatMult                  0      0.00%     59.48% # Class of executed instruction
system.cpu.op_class::SimdFloatMultAcc               0      0.00%     59.48% # Class of executed instruction
system.cpu.op_class::SimdFloatSqrt                  0      0.00%     59.48% # Class of executed instruction
system.cpu.op_class::MemRead                225946750     30.93%     90.41% # Class of executed instruction
system.cpu.op_class::MemWrite                70038709      9.59%    100.00% # Class of executed instruction
system.cpu.op_class::IprAccess                      0      0.00%    100.00% # Class of executed instruction
system.cpu.op_class::InstPrefetch                   0      0.00%    100.00% # Class of executed instruction
system.cpu.op_class::total                  730450447                       # Class of executed instruction
system.cpu.dcache.tags.replacements           5052152                       # number of replacements
system.cpu.dcache.tags.tagsinuse            63.999522                       # Cycle average of tags in use
system.cpu.dcache.tags.total_refs           290933251                       # Total number of references to valid blocks.
system.cpu.dcache.tags.sampled_refs           5052216                       # Sample count of references to valid blocks.
system.cpu.dcache.tags.avg_refs             57.585276                       # Average number of references to valid blocks.
system.cpu.dcache.tags.warmup_cycle          32842500                       # Cycle when the warmup percentage was hit.
system.cpu.dcache.tags.occ_blocks::cpu.data    63.999522                       # Average occupied blocks per requestor
system.cpu.dcache.tags.occ_percent::cpu.data     0.999993                       # Average percentage of cache occupancy
system.cpu.dcache.tags.occ_percent::total     0.999993                       # Average percentage of cache occupancy
system.cpu.dcache.tags.occ_task_id_blocks::1024           64                       # Occupied blocks per task id
system.cpu.dcache.tags.age_task_id_blocks_1024::0            1                       # Occupied blocks per task id
system.cpu.dcache.tags.age_task_id_blocks_1024::1           10                       # Occupied blocks per task id
system.cpu.dcache.tags.age_task_id_blocks_1024::2           48                       # Occupied blocks per task id
system.cpu.dcache.tags.age_task_id_blocks_1024::3            5                       # Occupied blocks per task id
system.cpu.dcache.tags.occ_task_id_percent::1024            1                       # Percentage of cache occupancy per task id
system.cpu.dcache.tags.tag_accesses         597023150                       # Number of tag accesses
system.cpu.dcache.tags.data_accesses        597023150                       # Number of data accesses
system.cpu.dcache.ReadReq_hits::cpu.data    221930221                       # number of ReadReq hits
system.cpu.dcache.ReadReq_hits::total       221930221                       # number of ReadReq hits
system.cpu.dcache.WriteReq_hits::cpu.data     69003030                       # number of WriteReq hits
system.cpu.dcache.WriteReq_hits::total       69003030                       # number of WriteReq hits
system.cpu.dcache.demand_hits::cpu.data     290933251                       # number of demand (read+write) hits
system.cpu.dcache.demand_hits::total        290933251                       # number of demand (read+write) hits
system.cpu.dcache.overall_hits::cpu.data    290933251                       # number of overall hits
system.cpu.dcache.overall_hits::total       290933251                       # number of overall hits
system.cpu.dcache.ReadReq_misses::cpu.data      4000152                       # number of ReadReq misses
system.cpu.dcache.ReadReq_misses::total       4000152                       # number of ReadReq misses
system.cpu.dcache.WriteReq_misses::cpu.data      1035680                       # number of WriteReq misses
system.cpu.dcache.WriteReq_misses::total      1035680                       # number of WriteReq misses
system.cpu.dcache.SoftPFReq_misses::cpu.data        16384                       # number of SoftPFReq misses
system.cpu.dcache.SoftPFReq_misses::total        16384                       # number of SoftPFReq misses
system.cpu.dcache.demand_misses::cpu.data      5035832                       # number of demand (read+write) misses
system.cpu.dcache.demand_misses::total        5035832                       # number of demand (read+write) misses
system.cpu.dcache.overall_misses::cpu.data      5052216                       # number of overall misses
system.cpu.dcache.overall_misses::total       5052216                       # number of overall misses
system.cpu.dcache.ReadReq_miss_latency::cpu.data  82441641500                       # number of ReadReq miss cycles
system.cpu.dcache.ReadReq_miss_latency::total  82441641500                       # number of ReadReq miss cycles
system.cpu.dcache.WriteReq_miss_latency::cpu.data  37209119000                       # number of WriteReq miss cycles
system.cpu.dcache.WriteReq_miss_latency::total  37209119000                       # number of WriteReq miss cycles
system.cpu.dcache.demand_miss_latency::cpu.data 119650760500                       # number of demand (read+write) miss cycles
system.cpu.dcache.demand_miss_latency::total 119650760500                       # number of demand (read+write) miss cycles
system.cpu.dcache.overall_miss_latency::cpu.data 119650760500                       # number of overall miss cycles
system.cpu.dcache.overall_miss_latency::total 119650760500                       # number of overall miss cycles
system.cpu.dcache.ReadReq_accesses::cpu.data    225930373                       # number of ReadReq accesses(hits+misses)
system.cpu.dcache.ReadReq_accesses::total    225930373                       # number of ReadReq accesses(hits+misses)
system.cpu.dcache.WriteReq_accesses::cpu.data     70038710                       # number of WriteReq accesses(hits+misses)
system.cpu.dcache.WriteReq_accesses::total     70038710                       # number of WriteReq accesses(hits+misses)
system.cpu.dcache.SoftPFReq_accesses::cpu.data        16384                       # number of SoftPFReq accesses(hits+misses)
system.cpu.dcache.SoftPFReq_accesses::total        16384                       # number of SoftPFReq accesses(hits+misses)
system.cpu.dcache.demand_accesses::cpu.data    295969083                       # number of demand (read+write) accesses
system.cpu.dcache.demand_accesses::total    295969083                       # number of demand (read+write) accesses
system.cpu.dcache.overall_accesses::cpu.data    295985467                       # number of overall (read+write) accesses
system.cpu.dcache.overall_accesses::total    295985467                       # number of overall (read+write) accesses
system.cpu.dcache.ReadReq_miss_rate::cpu.data     0.017705                       # miss rate for ReadReq accesses
system.cpu.dcache.ReadReq_miss_rate::total     0.017705                       # miss rate for ReadReq accesses
system.cpu.dcache.WriteReq_miss_rate::cpu.data     0.014787                       # miss rate for WriteReq accesses
system.cpu.dcache.WriteReq_miss_rate::total     0.014787                       # miss rate for WriteReq accesses
system.cpu.dcache.SoftPFReq_miss_rate::cpu.data            1                       # miss rate for SoftPFReq accesses
system.cpu.dcache.SoftPFReq_miss_rate::total            1                       # miss rate for SoftPFReq accesses
system.cpu.dcache.demand_miss_rate::cpu.data     0.017015                       # miss rate for demand accesses
system.cpu.dcache.demand_miss_rate::total     0.017015                       # miss rate for demand accesses
system.cpu.dcache.overall_miss_rate::cpu.data     0.017069                       # miss rate for overall accesses
system.cpu.dcache.overall_miss_rate::total     0.017069                       # miss rate for overall accesses
system.cpu.dcache.ReadReq_avg_miss_latency::cpu.data 20609.627209                       # average ReadReq miss latency
system.cpu.dcache.ReadReq_avg_miss_latency::total 20609.627209                       # average ReadReq miss latency
system.cpu.dcache.WriteReq_avg_miss_latency::cpu.data 35927.235246                       # average WriteReq miss latency
system.cpu.dcache.WriteReq_avg_miss_latency::total 35927.235246                       # average WriteReq miss latency
system.cpu.dcache.demand_avg_miss_latency::cpu.data 23759.879301                       # average overall miss latency
system.cpu.dcache.demand_avg_miss_latency::total 23759.879301                       # average overall miss latency
system.cpu.dcache.overall_avg_miss_latency::cpu.data 23682.827595                       # average overall miss latency
system.cpu.dcache.overall_avg_miss_latency::total 23682.827595                       # average overall miss latency
system.cpu.dcache.blocked_cycles::no_mshrs       228742                       # number of cycles access was blocked
system.cpu.dcache.blocked_cycles::no_targets            0                       # number of cycles access was blocked
system.cpu.dcache.blocked::no_mshrs              5687                       # number of cycles access was blocked
system.cpu.dcache.blocked::no_targets               0                       # number of cycles access was blocked
system.cpu.dcache.avg_blocked_cycles::no_mshrs    40.221910                       # average number of cycles each access was blocked
system.cpu.dcache.avg_blocked_cycles::no_targets          nan                       # average number of cycles each access was blocked
system.cpu.dcache.fast_writes                       0                       # number of fast writes performed
system.cpu.dcache.cache_copies                      0                       # number of cache copies performed
system.cpu.dcache.writebacks::writebacks      2530429                       # number of writebacks
system.cpu.dcache.writebacks::total           2530429                       # number of writebacks
system.cpu.dcache.ReadReq_mshr_misses::cpu.data      4000152                       # number of ReadReq MSHR misses
system.cpu.dcache.ReadReq_mshr_misses::total      4000152                       # number of ReadReq MSHR misses
system.cpu.dcache.WriteReq_mshr_misses::cpu.data      1035680                       # number of WriteReq MSHR misses
system.cpu.dcache.WriteReq_mshr_misses::total      1035680                       # number of WriteReq MSHR misses
system.cpu.dcache.SoftPFReq_mshr_misses::cpu.data        16384                       # number of SoftPFReq MSHR misses
system.cpu.dcache.SoftPFReq_mshr_misses::total        16384                       # number of SoftPFReq MSHR misses
system.cpu.dcache.demand_mshr_misses::cpu.data      5035832                       # number of demand (read+write) MSHR misses
system.cpu.dcache.demand_mshr_misses::total      5035832                       # number of demand (read+write) MSHR misses
system.cpu.dcache.overall_mshr_misses::cpu.data      5052216                       # number of overall MSHR misses
system.cpu.dcache.overall_mshr_misses::total      5052216                       # number of overall MSHR misses
system.cpu.dcache.ReadReq_mshr_miss_latency::cpu.data  78441489500                       # number of ReadReq MSHR miss cycles
system.cpu.dcache.ReadReq_mshr_miss_latency::total  78441489500                       # number of ReadReq MSHR miss cycles
system.cpu.dcache.WriteReq_mshr_miss_latency::cpu.data  36173439000                       # number of WriteReq MSHR miss cycles
system.cpu.dcache.WriteReq_mshr_miss_latency::total  36173439000                       # number of WriteReq MSHR miss cycles
system.cpu.dcache.SoftPFReq_mshr_miss_latency::cpu.data   1280643447                       # number of SoftPFReq MSHR miss cycles
system.cpu.dcache.SoftPFReq_mshr_miss_latency::total   1280643447                       # number of SoftPFReq MSHR miss cycles
system.cpu.dcache.demand_mshr_miss_latency::cpu.data 114614928500                       # number of demand (read+write) MSHR miss cycles
system.cpu.dcache.demand_mshr_miss_latency::total 114614928500                       # number of demand (read+write) MSHR miss cycles
system.cpu.dcache.overall_mshr_miss_latency::cpu.data 115895571947                       # number of overall MSHR miss cycles
system.cpu.dcache.overall_mshr_miss_latency::total 115895571947                       # number of overall MSHR miss cycles
system.cpu.dcache.ReadReq_mshr_miss_rate::cpu.data     0.017705                       # mshr miss rate for ReadReq accesses
system.cpu.dcache.ReadReq_mshr_miss_rate::total     0.017705                       # mshr miss rate for ReadReq accesses
system.cpu.dcache.WriteReq_mshr_miss_rate::cpu.data     0.014787                       # mshr miss rate for WriteReq accesses
system.cpu.dcache.WriteReq_mshr_miss_rate::total     0.014787                       # mshr miss rate for WriteReq accesses
system.cpu.dcache.SoftPFReq_mshr_miss_rate::cpu.data            1                       # mshr miss rate for SoftPFReq accesses
system.cpu.dcache.SoftPFReq_mshr_miss_rate::total            1                       # mshr miss rate for SoftPFReq accesses
system.cpu.dcache.demand_mshr_miss_rate::cpu.data     0.017015                       # mshr miss rate for demand accesses
system.cpu.dcache.demand_mshr_miss_rate::total     0.017015                       # mshr miss rate for demand accesses
system.cpu.dcache.overall_mshr_miss_rate::cpu.data     0.017069                       # mshr miss rate for overall accesses
system.cpu.dcache.overall_mshr_miss_rate::total     0.017069                       # mshr miss rate for overall accesses
system.cpu.dcache.ReadReq_avg_mshr_miss_latency::cpu.data 19609.627209                       # average ReadReq mshr miss latency
system.cpu.dcache.ReadReq_avg_mshr_miss_latency::total 19609.627209                       # average ReadReq mshr miss latency
system.cpu.dcache.WriteReq_avg_mshr_miss_latency::cpu.data 34927.235246                       # average WriteReq mshr miss latency
system.cpu.dcache.WriteReq_avg_mshr_miss_latency::total 34927.235246                       # average WriteReq mshr miss latency
system.cpu.dcache.SoftPFReq_avg_mshr_miss_latency::cpu.data 78164.272888                       # average SoftPFReq mshr miss latency
system.cpu.dcache.SoftPFReq_avg_mshr_miss_latency::total 78164.272888                       # average SoftPFReq mshr miss latency
system.cpu.dcache.demand_avg_mshr_miss_latency::cpu.data 22759.879301                       # average overall mshr miss latency
system.cpu.dcache.demand_avg_mshr_miss_latency::total 22759.879301                       # average overall mshr miss latency
system.cpu.dcache.overall_avg_mshr_miss_latency::cpu.data 22939.552059                       # average overall mshr miss latency
system.cpu.dcache.overall_avg_mshr_miss_latency::total 22939.552059                       # average overall mshr miss latency
system.cpu.dcache.no_allocate_misses                0                       # Number of misses that were no-allocate
system.cpu.dtb_walker_cache.tags.replacements            0                       # number of replacements
system.cpu.dtb_walker_cache.tags.tagsinuse            0                       # Cycle average of tags in use
system.cpu.dtb_walker_cache.tags.total_refs            0                       # Total number of references to valid blocks.
system.cpu.dtb_walker_cache.tags.sampled_refs            0                       # Sample count of references to valid blocks.
system.cpu.dtb_walker_cache.tags.avg_refs          nan                       # Average number of references to valid blocks.
system.cpu.dtb_walker_cache.tags.warmup_cycle            0                       # Cycle when the warmup percentage was hit.
system.cpu.dtb_walker_cache.tags.tag_accesses            0                       # Number of tag accesses
system.cpu.dtb_walker_cache.tags.data_accesses            0                       # Number of data accesses
system.cpu.dtb_walker_cache.blocked_cycles::no_mshrs            0                       # number of cycles access was blocked
system.cpu.dtb_walker_cache.blocked_cycles::no_targets            0                       # number of cycles access was blocked
system.cpu.dtb_walker_cache.blocked::no_mshrs            0                       # number of cycles access was blocked
system.cpu.dtb_walker_cache.blocked::no_targets            0                       # number of cycles access was blocked
system.cpu.dtb_walker_cache.avg_blocked_cycles::no_mshrs          nan                       # average number of cycles each access was blocked
system.cpu.dtb_walker_cache.avg_blocked_cycles::no_targets          nan                       # average number of cycles each access was blocked
system.cpu.dtb_walker_cache.fast_writes             0                       # number of fast writes performed
system.cpu.dtb_walker_cache.cache_copies            0                       # number of cache copies performed
system.cpu.dtb_walker_cache.no_allocate_misses            0                       # Number of misses that were no-allocate
system.cpu.icache.tags.replacements                45                       # number of replacements
system.cpu.icache.tags.tagsinuse           662.468428                       # Cycle average of tags in use
system.cpu.icache.tags.total_refs           687396869                       # Total number of references to valid blocks.
system.cpu.icache.tags.sampled_refs               994                       # Sample count of references to valid blocks.
system.cpu.icache.tags.avg_refs          691546.145875                       # Average number of references to valid blocks.
system.cpu.icache.tags.warmup_cycle                 0                       # Cycle when the warmup percentage was hit.
system.cpu.icache.tags.occ_blocks::cpu.inst   662.468428                       # Average occupied blocks per requestor
system.cpu.icache.tags.occ_percent::cpu.inst     0.323471                       # Average percentage of cache occupancy
system.cpu.icache.tags.occ_percent::total     0.323471                       # Average percentage of cache occupancy
system.cpu.icache.tags.occ_task_id_blocks::1024          949                       # Occupied blocks per task id
system.cpu.icache.tags.age_task_id_blocks_1024::1            7                       # Occupied blocks per task id
system.cpu.icache.tags.age_task_id_blocks_1024::3           25                       # Occupied blocks per task id
system.cpu.icache.tags.age_task_id_blocks_1024::4          917                       # Occupied blocks per task id
system.cpu.icache.tags.occ_task_id_percent::1024     0.463379                       # Percentage of cache occupancy per task id
system.cpu.icache.tags.tag_accesses        1374796720                       # Number of tag accesses
system.cpu.icache.tags.data_accesses       1374796720                       # Number of data accesses
system.cpu.icache.ReadReq_hits::cpu.inst    687396869                       # number of ReadReq hits
system.cpu.icache.ReadReq_hits::total       687396869                       # number of ReadReq hits
system.cpu.icache.demand_hits::cpu.inst     687396869                       # number of demand (read+write) hits
system.cpu.icache.demand_hits::total        687396869                       # number of demand (read+write) hits
system.cpu.icache.overall_hits::cpu.inst    687396869                       # number of overall hits
system.cpu.icache.overall_hits::total       687396869                       # number of overall hits
system.cpu.icache.ReadReq_misses::cpu.inst          994                       # number of ReadReq misses
system.cpu.icache.ReadReq_misses::total           994                       # number of ReadReq misses
system.cpu.icache.demand_misses::cpu.inst          994                       # number of demand (read+write) misses
system.cpu.icache.demand_misses::total            994                       # number of demand (read+write) misses
system.cpu.icache.overall_misses::cpu.inst          994                       # number of overall misses
system.cpu.icache.overall_misses::total           994                       # number of overall misses
system.cpu.icache.ReadReq_miss_latency::cpu.inst     78332000                       # number of ReadReq miss cycles
system.cpu.icache.ReadReq_miss_latency::total     78332000                       # number of ReadReq miss cycles
system.cpu.icache.demand_miss_latency::cpu.inst     78332000                       # number of demand (read+write) miss cycles
system.cpu.icache.demand_miss_latency::total     78332000                       # number of demand (read+write) miss cycles
system.cpu.icache.overall_miss_latency::cpu.inst     78332000                       # number of overall miss cycles
system.cpu.icache.overall_miss_latency::total     78332000                       # number of overall miss cycles
system.cpu.icache.ReadReq_accesses::cpu.inst    687397863                       # number of ReadReq accesses(hits+misses)
system.cpu.icache.ReadReq_accesses::total    687397863                       # number of ReadReq accesses(hits+misses)
system.cpu.icache.demand_accesses::cpu.inst    687397863                       # number of demand (read+write) accesses
system.cpu.icache.demand_accesses::total    687397863                       # number of demand (read+write) accesses
system.cpu.icache.overall_accesses::cpu.inst    687397863                       # number of overall (read+write) accesses
system.cpu.icache.overall_accesses::total    687397863                       # number of overall (read+write) accesses
system.cpu.icache.ReadReq_miss_rate::cpu.inst     0.000001                       # miss rate for ReadReq accesses
system.cpu.icache.ReadReq_miss_rate::total     0.000001                       # miss rate for ReadReq accesses
system.cpu.icache.demand_miss_rate::cpu.inst     0.000001                       # miss rate for demand accesses
system.cpu.icache.demand_miss_rate::total     0.000001                       # miss rate for demand accesses
system.cpu.icache.overall_miss_rate::cpu.inst     0.000001                       # miss rate for overall accesses
system.cpu.icache.overall_miss_rate::total     0.000001                       # miss rate for overall accesses
system.cpu.icache.ReadReq_avg_miss_latency::cpu.inst 78804.828974                       # average ReadReq miss latency
system.cpu.icache.ReadReq_avg_miss_latency::total 78804.828974                       # average ReadReq miss latency
system.cpu.icache.demand_avg_miss_latency::cpu.inst 78804.828974                       # average overall miss latency
system.cpu.icache.demand_avg_miss_latency::total 78804.828974                       # average overall miss latency
system.cpu.icache.overall_avg_miss_latency::cpu.inst 78804.828974                       # average overall miss latency
system.cpu.icache.overall_avg_miss_latency::total 78804.828974                       # average overall miss latency
system.cpu.icache.blocked_cycles::no_mshrs            0                       # number of cycles access was blocked
system.cpu.icache.blocked_cycles::no_targets            0                       # number of cycles access was blocked
system.cpu.icache.blocked::no_mshrs                 0                       # number of cycles access was blocked
system.cpu.icache.blocked::no_targets               0                       # number of cycles access was blocked
system.cpu.icache.avg_blocked_cycles::no_mshrs          nan                       # average number of cycles each access was blocked
system.cpu.icache.avg_blocked_cycles::no_targets          nan                       # average number of cycles each access was blocked
system.cpu.icache.fast_writes                       0                       # number of fast writes performed
system.cpu.icache.cache_copies                      0                       # number of cache copies performed
system.cpu.icache.writebacks::writebacks           45                       # number of writebacks
system.cpu.icache.writebacks::total                45                       # number of writebacks
system.cpu.icache.ReadReq_mshr_misses::cpu.inst          994                       # number of ReadReq MSHR misses
system.cpu.icache.ReadReq_mshr_misses::total          994                       # number of ReadReq MSHR misses
system.cpu.icache.demand_mshr_misses::cpu.inst          994                       # number of demand (read+write) MSHR misses
system.cpu.icache.demand_mshr_misses::total          994                       # number of demand (read+write) MSHR misses
system.cpu.icache.overall_mshr_misses::cpu.inst          994                       # number of overall MSHR misses
system.cpu.icache.overall_mshr_misses::total          994                       # number of overall MSHR misses
system.cpu.icache.ReadReq_mshr_miss_latency::cpu.inst     77338000                       # number of ReadReq MSHR miss cycles
system.cpu.icache.ReadReq_mshr_miss_latency::total     77338000                       # number of ReadReq MSHR miss cycles
system.cpu.icache.demand_mshr_miss_latency::cpu.inst     77338000                       # number of demand (read+write) MSHR miss cycles
system.cpu.icache.demand_mshr_miss_latency::total     77338000                       # number of demand (read+write) MSHR miss cycles
system.cpu.icache.overall_mshr_miss_latency::cpu.inst     77338000                       # number of overall MSHR miss cycles
system.cpu.icache.overall_mshr_miss_latency::total     77338000                       # number of overall MSHR miss cycles
system.cpu.icache.ReadReq_mshr_miss_rate::cpu.inst     0.000001                       # mshr miss rate for ReadReq accesses
system.cpu.icache.ReadReq_mshr_miss_rate::total     0.000001                       # mshr miss rate for ReadReq accesses
system.cpu.icache.demand_mshr_miss_rate::cpu.inst     0.000001                       # mshr miss rate for demand accesses
system.cpu.icache.demand_mshr_miss_rate::total     0.000001                       # mshr miss rate for demand accesses
system.cpu.icache.overall_mshr_miss_rate::cpu.inst     0.000001                       # mshr miss rate for overall accesses
system.cpu.icache.overall_mshr_miss_rate::total     0.000001                       # mshr miss rate for overall accesses
system.cpu.icache.ReadReq_avg_mshr_miss_latency::cpu.inst 77804.828974                       # average ReadReq mshr miss latency
system.cpu.icache.ReadReq_avg_mshr_miss_latency::total 77804.828974                       # average ReadReq mshr miss latency
system.cpu.icache.demand_avg_mshr_miss_latency::cpu.inst 77804.828974                       # average overall mshr miss latency
system.cpu.icache.demand_avg_mshr_miss_latency::total 77804.828974                       # average overall mshr miss latency
system.cpu.icache.overall_avg_mshr_miss_latency::cpu.inst 77804.828974                       # average overall mshr miss latency
system.cpu.icache.overall_avg_mshr_miss_latency::total 77804.828974                       # average overall mshr miss latency
system.cpu.icache.no_allocate_misses                0                       # Number of misses that were no-allocate
system.cpu.itb_walker_cache.tags.replacements            0                       # number of replacements
system.cpu.itb_walker_cache.tags.tagsinuse            0                       # Cycle average of tags in use
system.cpu.itb_walker_cache.tags.total_refs            0                       # Total number of references to valid blocks.
system.cpu.itb_walker_cache.tags.sampled_refs            0                       # Sample count of references to valid blocks.
system.cpu.itb_walker_cache.tags.avg_refs          nan                       # Average number of references to valid blocks.
system.cpu.itb_walker_cache.tags.warmup_cycle            0                       # Cycle when the warmup percentage was hit.
system.cpu.itb_walker_cache.tags.tag_accesses            0                       # Number of tag accesses
system.cpu.itb_walker_cache.tags.data_accesses            0                       # Number of data accesses
system.cpu.itb_walker_cache.blocked_cycles::no_mshrs            0                       # number of cycles access was blocked
system.cpu.itb_walker_cache.blocked_cycles::no_targets            0                       # number of cycles access was blocked
system.cpu.itb_walker_cache.blocked::no_mshrs            0                       # number of cycles access was blocked
system.cpu.itb_walker_cache.blocked::no_targets            0                       # number of cycles access was blocked
system.cpu.itb_walker_cache.avg_blocked_cycles::no_mshrs          nan                       # average number of cycles each access was blocked
system.cpu.itb_walker_cache.avg_blocked_cycles::no_targets          nan                       # average number of cycles each access was blocked
system.cpu.itb_walker_cache.fast_writes             0                       # number of fast writes performed
system.cpu.itb_walker_cache.cache_copies            0                       # number of cache copies performed
system.cpu.itb_walker_cache.no_allocate_misses            0                       # Number of misses that were no-allocate
system.l2.tags.replacements                    747587                       # number of replacements
system.l2.tags.tagsinuse                 16322.545703                       # Cycle average of tags in use
system.l2.tags.total_refs                     8301654                       # Total number of references to valid blocks.
system.l2.tags.sampled_refs                    763955                       # Sample count of references to valid blocks.
system.l2.tags.avg_refs                     10.866679                       # Average number of references to valid blocks.
system.l2.tags.warmup_cycle                9759239500                       # Cycle when the warmup percentage was hit.
system.l2.tags.occ_blocks::writebacks     8030.747795                       # Average occupied blocks per requestor
system.l2.tags.occ_blocks::cpu.inst          3.970034                       # Average occupied blocks per requestor
system.l2.tags.occ_blocks::cpu.data       8287.827874                       # Average occupied blocks per requestor
system.l2.tags.occ_percent::writebacks       0.490158                       # Average percentage of cache occupancy
system.l2.tags.occ_percent::cpu.inst         0.000242                       # Average percentage of cache occupancy
system.l2.tags.occ_percent::cpu.data         0.505849                       # Average percentage of cache occupancy
system.l2.tags.occ_percent::total            0.996249                       # Average percentage of cache occupancy
system.l2.tags.occ_task_id_blocks::1024         16368                       # Occupied blocks per task id
system.l2.tags.age_task_id_blocks_1024::0            1                       # Occupied blocks per task id
system.l2.tags.age_task_id_blocks_1024::1           11                       # Occupied blocks per task id
system.l2.tags.age_task_id_blocks_1024::2           28                       # Occupied blocks per task id
system.l2.tags.age_task_id_blocks_1024::3          320                       # Occupied blocks per task id
system.l2.tags.age_task_id_blocks_1024::4        16008                       # Occupied blocks per task id
system.l2.tags.occ_task_id_percent::1024     0.999023                       # Percentage of cache occupancy per task id
system.l2.tags.tag_accesses                  11905042                       # Number of tag accesses
system.l2.tags.data_accesses                 11905042                       # Number of data accesses
system.l2.WritebackDirty_hits::writebacks      2530429                       # number of WritebackDirty hits
system.l2.WritebackDirty_hits::total          2530429                       # number of WritebackDirty hits
system.l2.WritebackClean_hits::writebacks           45                       # number of WritebackClean hits
system.l2.WritebackClean_hits::total               45                       # number of WritebackClean hits
system.l2.ReadExReq_hits::cpu.data             717044                       # number of ReadExReq hits
system.l2.ReadExReq_hits::total                717044                       # number of ReadExReq hits
system.l2.ReadCleanReq_hits::cpu.inst               1                       # number of ReadCleanReq hits
system.l2.ReadCleanReq_hits::total                  1                       # number of ReadCleanReq hits
system.l2.ReadSharedReq_hits::cpu.data        3574427                       # number of ReadSharedReq hits
system.l2.ReadSharedReq_hits::total           3574427                       # number of ReadSharedReq hits
system.l2.demand_hits::cpu.inst                     1                       # number of demand (read+write) hits
system.l2.demand_hits::cpu.data               4291471                       # number of demand (read+write) hits
system.l2.demand_hits::total                  4291472                       # number of demand (read+write) hits
system.l2.overall_hits::cpu.inst                    1                       # number of overall hits
system.l2.overall_hits::cpu.data              4291471                       # number of overall hits
system.l2.overall_hits::total                 4291472                       # number of overall hits
system.l2.ReadExReq_misses::cpu.data           318636                       # number of ReadExReq misses
system.l2.ReadExReq_misses::total              318636                       # number of ReadExReq misses
system.l2.ReadCleanReq_misses::cpu.inst           993                       # number of ReadCleanReq misses
system.l2.ReadCleanReq_misses::total              993                       # number of ReadCleanReq misses
system.l2.ReadSharedReq_misses::cpu.data       442109                       # number of ReadSharedReq misses
system.l2.ReadSharedReq_misses::total          442109                       # number of ReadSharedReq misses
system.l2.demand_misses::cpu.inst                 993                       # number of demand (read+write) misses
system.l2.demand_misses::cpu.data              760745                       # number of demand (read+write) misses
system.l2.demand_misses::total                 761738                       # number of demand (read+write) misses
system.l2.overall_misses::cpu.inst                993                       # number of overall misses
system.l2.overall_misses::cpu.data             760745                       # number of overall misses
system.l2.overall_misses::total                761738                       # number of overall misses
system.l2.ReadExReq_miss_latency::cpu.data  27090833500                       # number of ReadExReq miss cycles
system.l2.ReadExReq_miss_latency::total   27090833500                       # number of ReadExReq miss cycles
system.l2.ReadCleanReq_miss_latency::cpu.inst     75832500                       # number of ReadCleanReq miss cycles
system.l2.ReadCleanReq_miss_latency::total     75832500                       # number of ReadCleanReq miss cycles
system.l2.ReadSharedReq_miss_latency::cpu.data  36165296000                       # number of ReadSharedReq miss cycles
system.l2.ReadSharedReq_miss_latency::total  36165296000                       # number of ReadSharedReq miss cycles
system.l2.demand_miss_latency::cpu.inst      75832500                       # number of demand (read+write) miss cycles
system.l2.demand_miss_latency::cpu.data   63256129500                       # number of demand (read+write) miss cycles
system.l2.demand_miss_latency::total      63331962000                       # number of demand (read+write) miss cycles
system.l2.overall_miss_latency::cpu.inst     75832500                       # number of overall miss cycles
system.l2.overall_miss_latency::cpu.data  63256129500                       # number of overall miss cycles
system.l2.overall_miss_latency::total     63331962000                       # number of overall miss cycles
system.l2.WritebackDirty_accesses::writebacks      2530429                       # number of WritebackDirty accesses(hits+misses)
system.l2.WritebackDirty_accesses::total      2530429                       # number of WritebackDirty accesses(hits+misses)
system.l2.WritebackClean_accesses::writebacks           45                       # number of WritebackClean accesses(hits+misses)
system.l2.WritebackClean_accesses::total           45                       # number of WritebackClean accesses(hits+misses)
system.l2.ReadExReq_accesses::cpu.data        1035680                       # number of ReadExReq accesses(hits+misses)
system.l2.ReadExReq_accesses::total           1035680                       # number of ReadExReq accesses(hits+misses)
system.l2.ReadCleanReq_accesses::cpu.inst          994                       # number of ReadCleanReq accesses(hits+misses)
system.l2.ReadCleanReq_accesses::total            994                       # number of ReadCleanReq accesses(hits+misses)
system.l2.ReadSharedReq_accesses::cpu.data      4016536                       # number of ReadSharedReq accesses(hits+misses)
system.l2.ReadSharedReq_accesses::total       4016536                       # number of ReadSharedReq accesses(hits+misses)
system.l2.demand_accesses::cpu.inst               994                       # number of demand (read+write) accesses
system.l2.demand_accesses::cpu.data           5052216                       # number of demand (read+write) accesses
system.l2.demand_accesses::total              5053210                       # number of demand (read+write) accesses
system.l2.overall_accesses::cpu.inst              994                       # number of overall (read+write) accesses
system.l2.overall_accesses::cpu.data          5052216                       # number of overall (read+write) accesses
system.l2.overall_accesses::total             5053210                       # number of overall (read+write) accesses
system.l2.ReadExReq_miss_rate::cpu.data      0.307659                       # miss rate for ReadExReq accesses
system.l2.ReadExReq_miss_rate::total         0.307659                       # miss rate for ReadExReq accesses
system.l2.ReadCleanReq_miss_rate::cpu.inst     0.998994                       # miss rate for ReadCleanReq accesses
system.l2.ReadCleanReq_miss_rate::total      0.998994                       # miss rate for ReadCleanReq accesses
system.l2.ReadSharedReq_miss_rate::cpu.data     0.110072                       # miss rate for ReadSharedReq accesses
system.l2.ReadSharedReq_miss_rate::total     0.110072                       # miss rate for ReadSharedReq accesses
system.l2.demand_miss_rate::cpu.inst         0.998994                       # miss rate for demand accesses
system.l2.demand_miss_rate::cpu.data         0.150576                       # miss rate for demand accesses
system.l2.demand_miss_rate::total            0.150743                       # miss rate for demand accesses
system.l2.overall_miss_rate::cpu.inst        0.998994                       # miss rate for overall accesses
system.l2.overall_miss_rate::cpu.data        0.150576                       # miss rate for overall accesses
system.l2.overall_miss_rate::total           0.150743                       # miss rate for overall accesses
system.l2.ReadExReq_avg_miss_latency::cpu.data 85021.257799                       # average ReadExReq miss latency
system.l2.ReadExReq_avg_miss_latency::total 85021.257799                       # average ReadExReq miss latency
system.l2.ReadCleanReq_avg_miss_latency::cpu.inst 76367.069486                       # average ReadCleanReq miss latency
system.l2.ReadCleanReq_avg_miss_latency::total 76367.069486                       # average ReadCleanReq miss latency
system.l2.ReadSharedReq_avg_miss_latency::cpu.data 81801.763818                       # average ReadSharedReq miss latency
system.l2.ReadSharedReq_avg_miss_latency::total 81801.763818                       # average ReadSharedReq miss latency
system.l2.demand_avg_miss_latency::cpu.inst 76367.069486                       # average overall miss latency
system.l2.demand_avg_miss_latency::cpu.data 83150.240225                       # average overall miss latency
system.l2.demand_avg_miss_latency::total 83141.397698                       # average overall miss latency
system.l2.overall_avg_miss_latency::cpu.inst 76367.069486                       # average overall miss latency
system.l2.overall_avg_miss_latency::cpu.data 83150.240225                       # average overall miss latency
system.l2.overall_avg_miss_latency::total 83141.397698                       # average overall miss latency
system.l2.blocked_cycles::no_mshrs                  0                       # number of cycles access was blocked
system.l2.blocked_cycles::no_targets                0                       # number of cycles access was blocked
system.l2.blocked::no_mshrs                         0                       # number of cycles access was blocked
system.l2.blocked::no_targets                       0                       # number of cycles access was blocked
system.l2.avg_blocked_cycles::no_mshrs            nan                       # average number of cycles each access was blocked
system.l2.avg_blocked_cycles::no_targets          nan                       # average number of cycles each access was blocked
system.l2.fast_writes                               0                       # number of fast writes performed
system.l2.cache_copies                              0                       # number of cache copies performed
system.l2.writebacks::writebacks               405997                       # number of writebacks
system.l2.writebacks::total                    405997                       # number of writebacks
system.l2.CleanEvict_mshr_misses::writebacks         2780                       # number of CleanEvict MSHR misses
system.l2.CleanEvict_mshr_misses::total          2780                       # number of CleanEvict MSHR misses
system.l2.ReadExReq_mshr_misses::cpu.data       318636                       # number of ReadExReq MSHR misses
system.l2.ReadExReq_mshr_misses::total         318636                       # number of ReadExReq MSHR misses
system.l2.ReadCleanReq_mshr_misses::cpu.inst          993                       # number of ReadCleanReq MSHR misses
system.l2.ReadCleanReq_mshr_misses::total          993                       # number of ReadCleanReq MSHR misses
system.l2.ReadSharedReq_mshr_misses::cpu.data       442109                       # number of ReadSharedReq MSHR misses
system.l2.ReadSharedReq_mshr_misses::total       442109                       # number of ReadSharedReq MSHR misses
system.l2.demand_mshr_misses::cpu.inst            993                       # number of demand (read+write) MSHR misses
system.l2.demand_mshr_misses::cpu.data         760745                       # number of demand (read+write) MSHR misses
system.l2.demand_mshr_misses::total            761738                       # number of demand (read+write) MSHR misses
system.l2.overall_mshr_misses::cpu.inst           993                       # number of overall MSHR misses
system.l2.overall_mshr_misses::cpu.data        760745                       # number of overall MSHR misses
system.l2.overall_mshr_misses::total           761738                       # number of overall MSHR misses
system.l2.ReadExReq_mshr_miss_latency::cpu.data  23904473500                       # number of ReadExReq MSHR miss cycles
system.l2.ReadExReq_mshr_miss_latency::total  23904473500                       # number of ReadExReq MSHR miss cycles
system.l2.ReadCleanReq_mshr_miss_latency::cpu.inst     65902500                       # number of ReadCleanReq MSHR miss cycles
system.l2.ReadCleanReq_mshr_miss_latency::total     65902500                       # number of ReadCleanReq MSHR miss cycles
system.l2.ReadSharedReq_mshr_miss_latency::cpu.data  31744206000                       # number of ReadSharedReq MSHR miss cycles
system.l2.ReadSharedReq_mshr_miss_latency::total  31744206000                       # number of ReadSharedReq MSHR miss cycles
system.l2.demand_mshr_miss_latency::cpu.inst     65902500                       # number of demand (read+write) MSHR miss cycles
system.l2.demand_mshr_miss_latency::cpu.data  55648679500                       # number of demand (read+write) MSHR miss cycles
system.l2.demand_mshr_miss_latency::total  55714582000                       # number of demand (read+write) MSHR miss cycles
system.l2.overall_mshr_miss_latency::cpu.inst     65902500                       # number of overall MSHR miss cycles
system.l2.overall_mshr_miss_latency::cpu.data  55648679500                       # number of overall MSHR miss cycles
system.l2.overall_mshr_miss_latency::total  55714582000                       # number of overall MSHR miss cycles
system.l2.CleanEvict_mshr_miss_rate::writebacks          inf                       # mshr miss rate for CleanEvict accesses
system.l2.CleanEvict_mshr_miss_rate::total          inf                       # mshr miss rate for CleanEvict accesses
system.l2.ReadExReq_mshr_miss_rate::cpu.data     0.307659                       # mshr miss rate for ReadExReq accesses
system.l2.ReadExReq_mshr_miss_rate::total     0.307659                       # mshr miss rate for ReadExReq accesses
system.l2.ReadCleanReq_mshr_miss_rate::cpu.inst     0.998994                       # mshr miss rate for ReadCleanReq accesses
system.l2.ReadCleanReq_mshr_miss_rate::total     0.998994                       # mshr miss rate for ReadCleanReq accesses
system.l2.ReadSharedReq_mshr_miss_rate::cpu.data     0.110072                       # mshr miss rate for ReadSharedReq accesses
system.l2.ReadSharedReq_mshr_miss_rate::total     0.110072                       # mshr miss rate for ReadSharedReq accesses
system.l2.demand_mshr_miss_rate::cpu.inst     0.998994                       # mshr miss rate for demand accesses
system.l2.demand_mshr_miss_rate::cpu.data     0.150576                       # mshr miss rate for demand accesses
system.l2.demand_mshr_miss_rate::total       0.150743                       # mshr miss rate for demand accesses
system.l2.overall_mshr_miss_rate::cpu.inst     0.998994                       # mshr miss rate for overall accesses
system.l2.overall_mshr_miss_rate::cpu.data     0.150576                       # mshr miss rate for overall accesses
system.l2.overall_mshr_miss_rate::total      0.150743                       # mshr miss rate for overall accesses
system.l2.ReadExReq_avg_mshr_miss_latency::cpu.data 75021.257799                       # average ReadExReq mshr miss latency
system.l2.ReadExReq_avg_mshr_miss_latency::total 75021.257799                       # average ReadExReq mshr miss latency
system.l2.ReadCleanReq_avg_mshr_miss_latency::cpu.inst 66367.069486                       # average ReadCleanReq mshr miss latency
system.l2.ReadCleanReq_avg_mshr_miss_latency::total 66367.069486                       # average ReadCleanReq mshr miss latency
system.l2.ReadSharedReq_avg_mshr_miss_latency::cpu.data 71801.763818                       # average ReadSharedReq mshr miss latency
system.l2.ReadSharedReq_avg_mshr_miss_latency::total 71801.763818                       # average ReadSharedReq mshr miss latency
system.l2.demand_avg_mshr_miss_latency::cpu.inst 66367.069486                       # average overall mshr miss latency
system.l2.demand_avg_mshr_miss_latency::cpu.data 73150.240225                       # average overall mshr miss latency
system.l2.demand_avg_mshr_miss_latency::total 73141.397698                       # average overall mshr miss latency
system.l2.overall_avg_mshr_miss_latency::cpu.inst 66367.069486                       # average overall mshr miss latency
system.l2.overall_avg_mshr_miss_latency::cpu.data 73150.240225                       # average overall mshr miss latency
system.l2.overall_avg_mshr_miss_latency::total 73141.397698                       # average overall mshr miss latency
system.l2.no_allocate_misses                        0                       # Number of misses that were no-allocate
system.membus.trans_dist::ReadResp             443102                       # Transaction distribution
system.membus.trans_dist::WritebackDirty       405997                       # Transaction distribution
system.membus.trans_dist::CleanEvict           338449                       # Transaction distribution
system.membus.trans_dist::ReadExReq            318636                       # Transaction distribution
system.membus.trans_dist::ReadExResp           318636                       # Transaction distribution
system.membus.trans_dist::ReadSharedReq        443102                       # Transaction distribution
system.membus.pkt_count_system.l2.mem_side::system.mem_ctrls.port      2267922                       # Packet count per connected master and slave (bytes)
system.membus.pkt_count_system.l2.mem_side::total      2267922                       # Packet count per connected master and slave (bytes)
system.membus.pkt_count::total                2267922                       # Packet count per connected master and slave (bytes)
system.membus.pkt_size_system.l2.mem_side::system.mem_ctrls.port     74735040                       # Cumulative packet size per connected master and slave (bytes)
system.membus.pkt_size_system.l2.mem_side::total     74735040                       # Cumulative packet size per connected master and slave (bytes)
system.membus.pkt_size::total                74735040                       # Cumulative packet size per connected master and slave (bytes)
system.membus.snoops                                0                       # Total snoops (count)
system.membus.snoop_fanout::samples           1506184                       # Request fanout histogram
system.membus.snoop_fanout::mean                    0                       # Request fanout histogram
system.membus.snoop_fanout::stdev                   0                       # Request fanout histogram
system.membus.snoop_fanout::underflows              0      0.00%      0.00% # Request fanout histogram
system.membus.snoop_fanout::0                 1506184    100.00%    100.00% # Request fanout histogram
system.membus.snoop_fanout::1                       0      0.00%    100.00% # Request fanout histogram
system.membus.snoop_fanout::overflows               0      0.00%    100.00% # Request fanout histogram
system.membus.snoop_fanout::min_value               0                       # Request fanout histogram
system.membus.snoop_fanout::max_value               0                       # Request fanout histogram
system.membus.snoop_fanout::total             1506184                       # Request fanout histogram
system.membus.reqLayer2.occupancy          3138737000                       # Layer occupancy (ticks)
system.membus.reqLayer2.utilization               0.3                       # Layer utilization (%)
system.membus.respLayer1.occupancy         4121077500                       # Layer occupancy (ticks)
system.membus.respLayer1.utilization              0.4                       # Layer utilization (%)
system.tol2bus.snoop_filter.tot_requests     10105407                       # Total number of requests made to the snoop filter.
system.tol2bus.snoop_filter.hit_single_requests      5052197                       # Number of requests hitting in the snoop filter with a single holder of the requested data.
system.tol2bus.snoop_filter.hit_multi_requests            0                       # Number of requests hitting in the snoop filter with multiple (>1) holders of the requested data.
system.tol2bus.snoop_filter.tot_snoops           5921                       # Total number of snoops made to the snoop filter.
system.tol2bus.snoop_filter.hit_single_snoops         5921                       # Number of snoops hitting in the snoop filter with a single holder of the requested data.
system.tol2bus.snoop_filter.hit_multi_snoops            0                       # Number of snoops hitting in the snoop filter with multiple (>1) holders of the requested data.
system.tol2bus.trans_dist::ReadResp           4017530                       # Transaction distribution
system.tol2bus.trans_dist::WritebackDirty      2936426                       # Transaction distribution
system.tol2bus.trans_dist::WritebackClean           45                       # Transaction distribution
system.tol2bus.trans_dist::CleanEvict         2863313                       # Transaction distribution
system.tol2bus.trans_dist::ReadExReq          1035680                       # Transaction distribution
system.tol2bus.trans_dist::ReadExResp         1035680                       # Transaction distribution
system.tol2bus.trans_dist::ReadCleanReq           994                       # Transaction distribution
system.tol2bus.trans_dist::ReadSharedReq      4016536                       # Transaction distribution
system.tol2bus.pkt_count_system.cpu.icache.mem_side::system.l2.cpu_side         2033                       # Packet count per connected master and slave (bytes)
system.tol2bus.pkt_count_system.cpu.dcache.mem_side::system.l2.cpu_side     15156584                       # Packet count per connected master and slave (bytes)
system.tol2bus.pkt_count::total              15158617                       # Packet count per connected master and slave (bytes)
system.tol2bus.pkt_size_system.cpu.icache.mem_side::system.l2.cpu_side        66496                       # Cumulative packet size per connected master and slave (bytes)
system.tol2bus.pkt_size_system.cpu.dcache.mem_side::system.l2.cpu_side    485289280                       # Cumulative packet size per connected master and slave (bytes)
system.tol2bus.pkt_size::total              485355776                       # Cumulative packet size per connected master and slave (bytes)
system.tol2bus.snoops                          747587                       # Total snoops (count)
system.tol2bus.snoop_fanout::samples          5800797                       # Request fanout histogram
system.tol2bus.snoop_fanout::mean            0.001021                       # Request fanout histogram
system.tol2bus.snoop_fanout::stdev           0.031932                       # Request fanout histogram
system.tol2bus.snoop_fanout::underflows             0      0.00%      0.00% # Request fanout histogram
system.tol2bus.snoop_fanout::0                5794876     99.90%     99.90% # Request fanout histogram
system.tol2bus.snoop_fanout::1                   5921      0.10%    100.00% # Request fanout histogram
system.tol2bus.snoop_fanout::2                      0      0.00%    100.00% # Request fanout histogram
system.tol2bus.snoop_fanout::3                      0      0.00%    100.00% # Request fanout histogram
system.tol2bus.snoop_fanout::4                      0      0.00%    100.00% # Request fanout histogram
system.tol2bus.snoop_fanout::overflows              0      0.00%    100.00% # Request fanout histogram
system.tol2bus.snoop_fanout::min_value              0                       # Request fanout histogram
system.tol2bus.snoop_fanout::max_value              1                       # Request fanout histogram
system.tol2bus.snoop_fanout::total            5800797                       # Request fanout histogram
system.tol2bus.reqLayer0.occupancy         7583177500                       # Layer occupancy (ticks)
system.tol2bus.reqLayer0.utilization              0.7                       # Layer utilization (%)
system.tol2bus.respLayer0.occupancy           1491000                       # Layer occupancy (ticks)
system.tol2bus.respLayer0.utilization             0.0                       # Layer utilization (%)
system.tol2bus.respLayer1.occupancy        7578324000                       # Layer occupancy (ticks)
system.tol2bus.respLayer1.utilization             0.7                       # Layer utilization (%)

---------- End Simulation Statistics   ----------
