
---------- Begin Simulation Statistics ----------
sim_seconds                                  1.054011                       # Number of seconds simulated
sim_ticks                                1054011473500                       # Number of ticks simulated
final_tick                               1054011473500                       # Number of ticks from beginning of simulation (restored from checkpoints and never reset)
sim_freq                                 1000000000000                       # Frequency of simulated ticks
host_inst_rate                                  35680                       # Simulator instruction rate (inst/s)
host_op_rate                                    52125                       # Simulator op (including micro ops) rate (op/s)
host_tick_rate                               75214696                       # Simulator tick rate (ticks/s)
host_mem_usage                                 828420                       # Number of bytes of host memory used
host_seconds                                 14013.37                       # Real time elapsed on the host
sim_insts                                   500000000                       # Number of instructions simulated
sim_ops                                     730450481                       # Number of ops (including micro ops) simulated
system.voltage_domain.voltage                       1                       # Voltage in Volts
system.clk_domain.clock                          1000                       # Clock period in ticks
system.mem_ctrls.bytes_read::cpu.inst           64000                       # Number of bytes read from this memory
system.mem_ctrls.bytes_read::cpu.data        41252544                       # Number of bytes read from this memory
system.mem_ctrls.bytes_read::total           41316544                       # Number of bytes read from this memory
system.mem_ctrls.bytes_inst_read::cpu.inst        64000                       # Number of instructions bytes read from this memory
system.mem_ctrls.bytes_inst_read::total         64000                       # Number of instructions bytes read from this memory
system.mem_ctrls.bytes_written::writebacks     24954304                       # Number of bytes written to this memory
system.mem_ctrls.bytes_written::total        24954304                       # Number of bytes written to this memory
system.mem_ctrls.num_reads::cpu.inst             1000                       # Number of read requests responded to by this memory
system.mem_ctrls.num_reads::cpu.data           644571                       # Number of read requests responded to by this memory
system.mem_ctrls.num_reads::total              645571                       # Number of read requests responded to by this memory
system.mem_ctrls.num_writes::writebacks        389911                       # Number of write requests responded to by this memory
system.mem_ctrls.num_writes::total             389911                       # Number of write requests responded to by this memory
system.mem_ctrls.bw_read::cpu.inst              60720                       # Total read bandwidth from this memory (bytes/s)
system.mem_ctrls.bw_read::cpu.data           39138610                       # Total read bandwidth from this memory (bytes/s)
system.mem_ctrls.bw_read::total              39199330                       # Total read bandwidth from this memory (bytes/s)
system.mem_ctrls.bw_inst_read::cpu.inst         60720                       # Instruction read bandwidth from this memory (bytes/s)
system.mem_ctrls.bw_inst_read::total            60720                       # Instruction read bandwidth from this memory (bytes/s)
system.mem_ctrls.bw_write::writebacks        23675553                       # Write bandwidth from this memory (bytes/s)
system.mem_ctrls.bw_write::total             23675553                       # Write bandwidth from this memory (bytes/s)
system.mem_ctrls.bw_total::writebacks        23675553                       # Total bandwidth to/from this memory (bytes/s)
system.mem_ctrls.bw_total::cpu.inst             60720                       # Total bandwidth to/from this memory (bytes/s)
system.mem_ctrls.bw_total::cpu.data          39138610                       # Total bandwidth to/from this memory (bytes/s)
system.mem_ctrls.bw_total::total             62874883                       # Total bandwidth to/from this memory (bytes/s)
system.mem_ctrls.readReqs                      645571                       # Number of read requests accepted
system.mem_ctrls.writeReqs                     389911                       # Number of write requests accepted
system.mem_ctrls.readBursts                    645571                       # Number of DRAM read bursts, including those serviced by the write queue
system.mem_ctrls.writeBursts                   389911                       # Number of DRAM write bursts, including those merged in the write queue
system.mem_ctrls.bytesReadDRAM               41258624                       # Total number of bytes read from DRAM
system.mem_ctrls.bytesReadWrQ                   57920                       # Total number of bytes read from write queue
system.mem_ctrls.bytesWritten                24952320                       # Total number of bytes written to DRAM
system.mem_ctrls.bytesReadSys                41316544                       # Total read bytes from the system interface side
system.mem_ctrls.bytesWrittenSys             24954304                       # Total written bytes from the system interface side
system.mem_ctrls.servicedByWrQ                    905                       # Number of DRAM read bursts serviced by the write queue
system.mem_ctrls.mergedWrBursts                     0                       # Number of DRAM write bursts merged with an existing one
system.mem_ctrls.neitherReadNorWriteReqs       238201                       # Number of requests that are neither read nor write
system.mem_ctrls.perBankRdBursts::0             42842                       # Per bank write bursts
system.mem_ctrls.perBankRdBursts::1             41107                       # Per bank write bursts
system.mem_ctrls.perBankRdBursts::2             39989                       # Per bank write bursts
system.mem_ctrls.perBankRdBursts::3             38948                       # Per bank write bursts
system.mem_ctrls.perBankRdBursts::4             38155                       # Per bank write bursts
system.mem_ctrls.perBankRdBursts::5             38800                       # Per bank write bursts
system.mem_ctrls.perBankRdBursts::6             39940                       # Per bank write bursts
system.mem_ctrls.perBankRdBursts::7             39519                       # Per bank write bursts
system.mem_ctrls.perBankRdBursts::8             37445                       # Per bank write bursts
system.mem_ctrls.perBankRdBursts::9             36927                       # Per bank write bursts
system.mem_ctrls.perBankRdBursts::10            40284                       # Per bank write bursts
system.mem_ctrls.perBankRdBursts::11            41290                       # Per bank write bursts
system.mem_ctrls.perBankRdBursts::12            41956                       # Per bank write bursts
system.mem_ctrls.perBankRdBursts::13            42037                       # Per bank write bursts
system.mem_ctrls.perBankRdBursts::14            42534                       # Per bank write bursts
system.mem_ctrls.perBankRdBursts::15            42893                       # Per bank write bursts
system.mem_ctrls.perBankWrBursts::0             25908                       # Per bank write bursts
system.mem_ctrls.perBankWrBursts::1             24842                       # Per bank write bursts
system.mem_ctrls.perBankWrBursts::2             24309                       # Per bank write bursts
system.mem_ctrls.perBankWrBursts::3             23432                       # Per bank write bursts
system.mem_ctrls.perBankWrBursts::4             22732                       # Per bank write bursts
system.mem_ctrls.perBankWrBursts::5             22816                       # Per bank write bursts
system.mem_ctrls.perBankWrBursts::6             23462                       # Per bank write bursts
system.mem_ctrls.perBankWrBursts::7             23745                       # Per bank write bursts
system.mem_ctrls.perBankWrBursts::8             23118                       # Per bank write bursts
system.mem_ctrls.perBankWrBursts::9             22856                       # Per bank write bursts
system.mem_ctrls.perBankWrBursts::10            24528                       # Per bank write bursts
system.mem_ctrls.perBankWrBursts::11            25041                       # Per bank write bursts
system.mem_ctrls.perBankWrBursts::12            25165                       # Per bank write bursts
system.mem_ctrls.perBankWrBursts::13            25722                       # Per bank write bursts
system.mem_ctrls.perBankWrBursts::14            26108                       # Per bank write bursts
system.mem_ctrls.perBankWrBursts::15            26096                       # Per bank write bursts
system.mem_ctrls.numRdRetry                         0                       # Number of times read queue was full causing retry
system.mem_ctrls.numWrRetry                         0                       # Number of times write queue was full causing retry
system.mem_ctrls.totGap                  1053978807500                       # Total gap between requests
system.mem_ctrls.readPktSize::0                     0                       # Read request sizes (log2)
system.mem_ctrls.readPktSize::1                     0                       # Read request sizes (log2)
system.mem_ctrls.readPktSize::2                     0                       # Read request sizes (log2)
system.mem_ctrls.readPktSize::3                     0                       # Read request sizes (log2)
system.mem_ctrls.readPktSize::4                     0                       # Read request sizes (log2)
system.mem_ctrls.readPktSize::5                     0                       # Read request sizes (log2)
system.mem_ctrls.readPktSize::6                645571                       # Read request sizes (log2)
system.mem_ctrls.writePktSize::0                    0                       # Write request sizes (log2)
system.mem_ctrls.writePktSize::1                    0                       # Write request sizes (log2)
system.mem_ctrls.writePktSize::2                    0                       # Write request sizes (log2)
system.mem_ctrls.writePktSize::3                    0                       # Write request sizes (log2)
system.mem_ctrls.writePktSize::4                    0                       # Write request sizes (log2)
system.mem_ctrls.writePktSize::5                    0                       # Write request sizes (log2)
system.mem_ctrls.writePktSize::6               389911                       # Write request sizes (log2)
system.mem_ctrls.rdQLenPdf::0                  636017                       # What read queue length does an incoming req see
system.mem_ctrls.rdQLenPdf::1                    8050                       # What read queue length does an incoming req see
system.mem_ctrls.rdQLenPdf::2                     449                       # What read queue length does an incoming req see
system.mem_ctrls.rdQLenPdf::3                     150                       # What read queue length does an incoming req see
system.mem_ctrls.rdQLenPdf::4                       0                       # What read queue length does an incoming req see
system.mem_ctrls.rdQLenPdf::5                       0                       # What read queue length does an incoming req see
system.mem_ctrls.rdQLenPdf::6                       0                       # What read queue length does an incoming req see
system.mem_ctrls.rdQLenPdf::7                       0                       # What read queue length does an incoming req see
system.mem_ctrls.rdQLenPdf::8                       0                       # What read queue length does an incoming req see
system.mem_ctrls.rdQLenPdf::9                       0                       # What read queue length does an incoming req see
system.mem_ctrls.rdQLenPdf::10                      0                       # What read queue length does an incoming req see
system.mem_ctrls.rdQLenPdf::11                      0                       # What read queue length does an incoming req see
system.mem_ctrls.rdQLenPdf::12                      0                       # What read queue length does an incoming req see
system.mem_ctrls.rdQLenPdf::13                      0                       # What read queue length does an incoming req see
system.mem_ctrls.rdQLenPdf::14                      0                       # What read queue length does an incoming req see
system.mem_ctrls.rdQLenPdf::15                      0                       # What read queue length does an incoming req see
system.mem_ctrls.rdQLenPdf::16                      0                       # What read queue length does an incoming req see
system.mem_ctrls.rdQLenPdf::17                      0                       # What read queue length does an incoming req see
system.mem_ctrls.rdQLenPdf::18                      0                       # What read queue length does an incoming req see
system.mem_ctrls.rdQLenPdf::19                      0                       # What read queue length does an incoming req see
system.mem_ctrls.rdQLenPdf::20                      0                       # What read queue length does an incoming req see
system.mem_ctrls.rdQLenPdf::21                      0                       # What read queue length does an incoming req see
system.mem_ctrls.rdQLenPdf::22                      0                       # What read queue length does an incoming req see
system.mem_ctrls.rdQLenPdf::23                      0                       # What read queue length does an incoming req see
system.mem_ctrls.rdQLenPdf::24                      0                       # What read queue length does an incoming req see
system.mem_ctrls.rdQLenPdf::25                      0                       # What read queue length does an incoming req see
system.mem_ctrls.rdQLenPdf::26                      0                       # What read queue length does an incoming req see
system.mem_ctrls.rdQLenPdf::27                      0                       # What read queue length does an incoming req see
system.mem_ctrls.rdQLenPdf::28                      0                       # What read queue length does an incoming req see
system.mem_ctrls.rdQLenPdf::29                      0                       # What read queue length does an incoming req see
system.mem_ctrls.rdQLenPdf::30                      0                       # What read queue length does an incoming req see
system.mem_ctrls.rdQLenPdf::31                      0                       # What read queue length does an incoming req see
system.mem_ctrls.wrQLenPdf::0                       1                       # What write queue length does an incoming req see
system.mem_ctrls.wrQLenPdf::1                       1                       # What write queue length does an incoming req see
system.mem_ctrls.wrQLenPdf::2                       1                       # What write queue length does an incoming req see
system.mem_ctrls.wrQLenPdf::3                       1                       # What write queue length does an incoming req see
system.mem_ctrls.wrQLenPdf::4                       1                       # What write queue length does an incoming req see
system.mem_ctrls.wrQLenPdf::5                       1                       # What write queue length does an incoming req see
system.mem_ctrls.wrQLenPdf::6                       1                       # What write queue length does an incoming req see
system.mem_ctrls.wrQLenPdf::7                       1                       # What write queue length does an incoming req see
system.mem_ctrls.wrQLenPdf::8                       1                       # What write queue length does an incoming req see
system.mem_ctrls.wrQLenPdf::9                       1                       # What write queue length does an incoming req see
system.mem_ctrls.wrQLenPdf::10                      1                       # What write queue length does an incoming req see
system.mem_ctrls.wrQLenPdf::11                      1                       # What write queue length does an incoming req see
system.mem_ctrls.wrQLenPdf::12                      1                       # What write queue length does an incoming req see
system.mem_ctrls.wrQLenPdf::13                      1                       # What write queue length does an incoming req see
system.mem_ctrls.wrQLenPdf::14                      1                       # What write queue length does an incoming req see
system.mem_ctrls.wrQLenPdf::15                  14610                       # What write queue length does an incoming req see
system.mem_ctrls.wrQLenPdf::16                  15634                       # What write queue length does an incoming req see
system.mem_ctrls.wrQLenPdf::17                  22419                       # What write queue length does an incoming req see
system.mem_ctrls.wrQLenPdf::18                  22495                       # What write queue length does an incoming req see
system.mem_ctrls.wrQLenPdf::19                  22467                       # What write queue length does an incoming req see
system.mem_ctrls.wrQLenPdf::20                  22464                       # What write queue length does an incoming req see
system.mem_ctrls.wrQLenPdf::21                  22461                       # What write queue length does an incoming req see
system.mem_ctrls.wrQLenPdf::22                  22457                       # What write queue length does an incoming req see
system.mem_ctrls.wrQLenPdf::23                  22460                       # What write queue length does an incoming req see
system.mem_ctrls.wrQLenPdf::24                  22459                       # What write queue length does an incoming req see
system.mem_ctrls.wrQLenPdf::25                  22461                       # What write queue length does an incoming req see
system.mem_ctrls.wrQLenPdf::26                  22480                       # What write queue length does an incoming req see
system.mem_ctrls.wrQLenPdf::27                  22552                       # What write queue length does an incoming req see
system.mem_ctrls.wrQLenPdf::28                  22623                       # What write queue length does an incoming req see
system.mem_ctrls.wrQLenPdf::29                  22475                       # What write queue length does an incoming req see
system.mem_ctrls.wrQLenPdf::30                  22459                       # What write queue length does an incoming req see
system.mem_ctrls.wrQLenPdf::31                  22459                       # What write queue length does an incoming req see
system.mem_ctrls.wrQLenPdf::32                  22455                       # What write queue length does an incoming req see
system.mem_ctrls.wrQLenPdf::33                      6                       # What write queue length does an incoming req see
system.mem_ctrls.wrQLenPdf::34                      0                       # What write queue length does an incoming req see
system.mem_ctrls.wrQLenPdf::35                      0                       # What write queue length does an incoming req see
system.mem_ctrls.wrQLenPdf::36                      0                       # What write queue length does an incoming req see
system.mem_ctrls.wrQLenPdf::37                      0                       # What write queue length does an incoming req see
system.mem_ctrls.wrQLenPdf::38                      0                       # What write queue length does an incoming req see
system.mem_ctrls.wrQLenPdf::39                      0                       # What write queue length does an incoming req see
system.mem_ctrls.wrQLenPdf::40                      0                       # What write queue length does an incoming req see
system.mem_ctrls.wrQLenPdf::41                      0                       # What write queue length does an incoming req see
system.mem_ctrls.wrQLenPdf::42                      0                       # What write queue length does an incoming req see
system.mem_ctrls.wrQLenPdf::43                      0                       # What write queue length does an incoming req see
system.mem_ctrls.wrQLenPdf::44                      0                       # What write queue length does an incoming req see
system.mem_ctrls.wrQLenPdf::45                      0                       # What write queue length does an incoming req see
system.mem_ctrls.wrQLenPdf::46                      0                       # What write queue length does an incoming req see
system.mem_ctrls.wrQLenPdf::47                      0                       # What write queue length does an incoming req see
system.mem_ctrls.wrQLenPdf::48                      0                       # What write queue length does an incoming req see
system.mem_ctrls.wrQLenPdf::49                      0                       # What write queue length does an incoming req see
system.mem_ctrls.wrQLenPdf::50                      0                       # What write queue length does an incoming req see
system.mem_ctrls.wrQLenPdf::51                      0                       # What write queue length does an incoming req see
system.mem_ctrls.wrQLenPdf::52                      0                       # What write queue length does an incoming req see
system.mem_ctrls.wrQLenPdf::53                      0                       # What write queue length does an incoming req see
system.mem_ctrls.wrQLenPdf::54                      0                       # What write queue length does an incoming req see
system.mem_ctrls.wrQLenPdf::55                      0                       # What write queue length does an incoming req see
system.mem_ctrls.wrQLenPdf::56                      0                       # What write queue length does an incoming req see
system.mem_ctrls.wrQLenPdf::57                      0                       # What write queue length does an incoming req see
system.mem_ctrls.wrQLenPdf::58                      0                       # What write queue length does an incoming req see
system.mem_ctrls.wrQLenPdf::59                      0                       # What write queue length does an incoming req see
system.mem_ctrls.wrQLenPdf::60                      0                       # What write queue length does an incoming req see
system.mem_ctrls.wrQLenPdf::61                      0                       # What write queue length does an incoming req see
system.mem_ctrls.wrQLenPdf::62                      0                       # What write queue length does an incoming req see
system.mem_ctrls.wrQLenPdf::63                      0                       # What write queue length does an incoming req see
system.mem_ctrls.bytesPerActivate::samples       559407                       # Bytes accessed per row activation
system.mem_ctrls.bytesPerActivate::mean    118.359162                       # Bytes accessed per row activation
system.mem_ctrls.bytesPerActivate::gmean    88.493068                       # Bytes accessed per row activation
system.mem_ctrls.bytesPerActivate::stdev   148.007545                       # Bytes accessed per row activation
system.mem_ctrls.bytesPerActivate::0-127       403431     72.12%     72.12% # Bytes accessed per row activation
system.mem_ctrls.bytesPerActivate::128-255       105101     18.79%     90.91% # Bytes accessed per row activation
system.mem_ctrls.bytesPerActivate::256-383        21705      3.88%     94.79% # Bytes accessed per row activation
system.mem_ctrls.bytesPerActivate::384-511         7007      1.25%     96.04% # Bytes accessed per row activation
system.mem_ctrls.bytesPerActivate::512-639        10961      1.96%     98.00% # Bytes accessed per row activation
system.mem_ctrls.bytesPerActivate::640-767         1197      0.21%     98.21% # Bytes accessed per row activation
system.mem_ctrls.bytesPerActivate::768-895         1248      0.22%     98.43% # Bytes accessed per row activation
system.mem_ctrls.bytesPerActivate::896-1023          819      0.15%     98.58% # Bytes accessed per row activation
system.mem_ctrls.bytesPerActivate::1024-1151         7938      1.42%    100.00% # Bytes accessed per row activation
system.mem_ctrls.bytesPerActivate::total       559407                       # Bytes accessed per row activation
system.mem_ctrls.rdPerTurnAround::samples        22455                       # Reads before turning the bus around for writes
system.mem_ctrls.rdPerTurnAround::mean      28.400980                       # Reads before turning the bus around for writes
system.mem_ctrls.rdPerTurnAround::gmean     23.671157                       # Reads before turning the bus around for writes
system.mem_ctrls.rdPerTurnAround::stdev    178.206048                       # Reads before turning the bus around for writes
system.mem_ctrls.rdPerTurnAround::0-1023        22446     99.96%     99.96% # Reads before turning the bus around for writes
system.mem_ctrls.rdPerTurnAround::1024-2047            2      0.01%     99.97% # Reads before turning the bus around for writes
system.mem_ctrls.rdPerTurnAround::2048-3071            1      0.00%     99.97% # Reads before turning the bus around for writes
system.mem_ctrls.rdPerTurnAround::3072-4095            2      0.01%     99.98% # Reads before turning the bus around for writes
system.mem_ctrls.rdPerTurnAround::4096-5119            2      0.01%     99.99% # Reads before turning the bus around for writes
system.mem_ctrls.rdPerTurnAround::7168-8191            1      0.00%    100.00% # Reads before turning the bus around for writes
system.mem_ctrls.rdPerTurnAround::23552-24575            1      0.00%    100.00% # Reads before turning the bus around for writes
system.mem_ctrls.rdPerTurnAround::total         22455                       # Reads before turning the bus around for writes
system.mem_ctrls.wrPerTurnAround::samples        22455                       # Writes before turning the bus around for reads
system.mem_ctrls.wrPerTurnAround::mean      17.362725                       # Writes before turning the bus around for reads
system.mem_ctrls.wrPerTurnAround::gmean     17.337058                       # Writes before turning the bus around for reads
system.mem_ctrls.wrPerTurnAround::stdev      0.932299                       # Writes before turning the bus around for reads
system.mem_ctrls.wrPerTurnAround::16             6817     30.36%     30.36% # Writes before turning the bus around for reads
system.mem_ctrls.wrPerTurnAround::17             1017      4.53%     34.89% # Writes before turning the bus around for reads
system.mem_ctrls.wrPerTurnAround::18            14285     63.62%     98.50% # Writes before turning the bus around for reads
system.mem_ctrls.wrPerTurnAround::19              331      1.47%     99.98% # Writes before turning the bus around for reads
system.mem_ctrls.wrPerTurnAround::20                5      0.02%    100.00% # Writes before turning the bus around for reads
system.mem_ctrls.wrPerTurnAround::total         22455                       # Writes before turning the bus around for reads
system.mem_ctrls.totQLat                   9726908000                       # Total ticks spent queuing
system.mem_ctrls.totMemAccLat             21814395500                       # Total ticks spent from burst creation until serviced by the DRAM
system.mem_ctrls.totBusLat                 3223330000                       # Total ticks spent in databus transfers
system.mem_ctrls.avgQLat                     15088.29                       # Average queueing delay per DRAM burst
system.mem_ctrls.avgBusLat                    5000.00                       # Average bus latency per DRAM burst
system.mem_ctrls.avgMemAccLat                33838.29                       # Average memory access latency per DRAM burst
system.mem_ctrls.avgRdBW                        39.14                       # Average DRAM read bandwidth in MiByte/s
system.mem_ctrls.avgWrBW                        23.67                       # Average achieved write bandwidth in MiByte/s
system.mem_ctrls.avgRdBWSys                     39.20                       # Average system read bandwidth in MiByte/s
system.mem_ctrls.avgWrBWSys                     23.68                       # Average system write bandwidth in MiByte/s
system.mem_ctrls.peakBW                      12800.00                       # Theoretical peak bandwidth in MiByte/s
system.mem_ctrls.busUtil                         0.49                       # Data bus utilization in percentage
system.mem_ctrls.busUtilRead                     0.31                       # Data bus utilization in percentage for reads
system.mem_ctrls.busUtilWrite                    0.18                       # Data bus utilization in percentage for writes
system.mem_ctrls.avgRdQLen                       1.00                       # Average read queue length when enqueuing
system.mem_ctrls.avgWrQLen                      24.04                       # Average write queue length when enqueuing
system.mem_ctrls.readRowHits                   299236                       # Number of row buffer hits during reads
system.mem_ctrls.writeRowHits                  175903                       # Number of row buffer hits during writes
system.mem_ctrls.readRowHitRate                 46.42                       # Row buffer hit rate for reads
system.mem_ctrls.writeRowHitRate                45.11                       # Row buffer hit rate for writes
system.mem_ctrls.avgGap                    1017862.99                       # Average gap between requests
system.mem_ctrls.pageHitRate                    45.93                       # Row buffer hit rate, read and write combined
system.mem_ctrls_0.actEnergy               2089145520                       # Energy for activate commands per rank (pJ)
system.mem_ctrls_0.preEnergy               1139910750                       # Energy for precharge commands per rank (pJ)
system.mem_ctrls_0.readEnergy              2490540000                       # Energy for read commands per rank (pJ)
system.mem_ctrls_0.writeEnergy             1239274080                       # Energy for write commands per rank (pJ)
system.mem_ctrls_0.refreshEnergy          68842750080                       # Energy for refresh commands per rank (pJ)
system.mem_ctrls_0.actBackEnergy         206253006885                       # Energy for active background per rank (pJ)
system.mem_ctrls_0.preBackEnergy         451481911500                       # Energy for precharge background per rank (pJ)
system.mem_ctrls_0.totalEnergy           733536538815                       # Total energy per rank (pJ)
system.mem_ctrls_0.averagePower            695.948806                       # Core power per rank (mW)
system.mem_ctrls_0.memoryStateTime::IDLE 749848141250                       # Time in different power states
system.mem_ctrls_0.memoryStateTime::REF   35195680000                       # Time in different power states
system.mem_ctrls_0.memoryStateTime::PRE_PDN            0                       # Time in different power states
system.mem_ctrls_0.memoryStateTime::ACT  268965528750                       # Time in different power states
system.mem_ctrls_0.memoryStateTime::ACT_PDN            0                       # Time in different power states
system.mem_ctrls_1.actEnergy               2139971400                       # Energy for activate commands per rank (pJ)
system.mem_ctrls_1.preEnergy               1167643125                       # Energy for precharge commands per rank (pJ)
system.mem_ctrls_1.readEnergy              2537854800                       # Energy for read commands per rank (pJ)
system.mem_ctrls_1.writeEnergy             1287148320                       # Energy for write commands per rank (pJ)
system.mem_ctrls_1.refreshEnergy          68842750080                       # Energy for refresh commands per rank (pJ)
system.mem_ctrls_1.actBackEnergy         206549461890                       # Energy for active background per rank (pJ)
system.mem_ctrls_1.preBackEnergy         451221863250                       # Energy for precharge background per rank (pJ)
system.mem_ctrls_1.totalEnergy           733746692865                       # Total energy per rank (pJ)
system.mem_ctrls_1.averagePower            696.148191                       # Core power per rank (mW)
system.mem_ctrls_1.memoryStateTime::IDLE 749402217500                       # Time in different power states
system.mem_ctrls_1.memoryStateTime::REF   35195680000                       # Time in different power states
system.mem_ctrls_1.memoryStateTime::PRE_PDN            0                       # Time in different power states
system.mem_ctrls_1.memoryStateTime::ACT  269411452500                       # Time in different power states
system.mem_ctrls_1.memoryStateTime::ACT_PDN            0                       # Time in different power states
system.cpu_voltage_domain.voltage                   1                       # Voltage in Volts
system.cpu_clk_domain.clock                       500                       # Clock period in ticks
system.cpu.apic_clk_domain.clock                 8000                       # Clock period in ticks
system.cpu.workload.num_syscalls                   86                       # Number of system calls
system.cpu.numCycles                       2108022947                       # number of cpu cycles simulated
system.cpu.numWorkItemsStarted                      0                       # number of work items this cpu started
system.cpu.numWorkItemsCompleted                    0                       # number of work items this cpu completed
system.cpu.committedInsts                   500000000                       # Number of instructions committed
system.cpu.committedOps                     730450481                       # Number of ops (including micro ops) committed
system.cpu.num_int_alu_accesses             729688887                       # Number of integer alu accesses
system.cpu.num_fp_alu_accesses                    761                       # Number of float alu accesses
system.cpu.num_func_calls                     1453959                       # number of times a function call or return occured
system.cpu.num_conditional_control_insts     31770494                       # number of instructions that are conditional controls
system.cpu.num_int_insts                    729688887                       # number of integer instructions
system.cpu.num_fp_insts                           761                       # number of float instructions
system.cpu.num_int_register_reads          1698743312                       # number of times the integer registers were read
system.cpu.num_int_register_writes          621892930                       # number of times the integer registers were written
system.cpu.num_fp_register_reads                 1183                       # number of times the floating registers were read
system.cpu.num_fp_register_writes                 497                       # number of times the floating registers were written
system.cpu.num_cc_register_reads            180840590                       # number of times the CC registers were read
system.cpu.num_cc_register_writes           276245123                       # number of times the CC registers were written
system.cpu.num_mem_refs                     295985437                       # number of memory refs
system.cpu.num_load_insts                   225946734                       # Number of load instructions
system.cpu.num_store_insts                   70038703                       # Number of store instructions
system.cpu.num_idle_cycles                          0                       # Number of idle cycles
system.cpu.num_busy_cycles                 2108022947                       # Number of busy cycles
system.cpu.not_idle_fraction                        1                       # Percentage of non-idle cycles
system.cpu.idle_fraction                            0                       # Percentage of idle cycles
system.cpu.Branches                          37843290                       # Number of branches fetched
system.cpu.op_class::No_OpClass                 94739      0.01%      0.01% # Class of executed instruction
system.cpu.op_class::IntAlu                 434349056     59.46%     59.48% # Class of executed instruction
system.cpu.op_class::IntMult                    20662      0.00%     59.48% # Class of executed instruction
system.cpu.op_class::IntDiv                       119      0.00%     59.48% # Class of executed instruction
system.cpu.op_class::FloatAdd                     468      0.00%     59.48% # Class of executed instruction
system.cpu.op_class::FloatCmp                       0      0.00%     59.48% # Class of executed instruction
system.cpu.op_class::FloatCvt                       0      0.00%     59.48% # Class of executed instruction
system.cpu.op_class::FloatMult                      0      0.00%     59.48% # Class of executed instruction
system.cpu.op_class::FloatDiv                       0      0.00%     59.48% # Class of executed instruction
system.cpu.op_class::FloatSqrt                      0      0.00%     59.48% # Class of executed instruction
system.cpu.op_class::SimdAdd                        0      0.00%     59.48% # Class of executed instruction
system.cpu.op_class::SimdAddAcc                     0      0.00%     59.48% # Class of executed instruction
system.cpu.op_class::SimdAlu                        0      0.00%     59.48% # Class of executed instruction
system.cpu.op_class::SimdCmp                        0      0.00%     59.48% # Class of executed instruction
system.cpu.op_class::SimdCvt                        0      0.00%     59.48% # Class of executed instruction
system.cpu.op_class::SimdMisc                       0      0.00%     59.48% # Class of executed instruction
system.cpu.op_class::SimdMult                       0      0.00%     59.48% # Class of executed instruction
system.cpu.op_class::SimdMultAcc                    0      0.00%     59.48% # Class of executed instruction
system.cpu.op_class::SimdShift                      0      0.00%     59.48% # Class of executed instruction
system.cpu.op_class::SimdShiftAcc                   0      0.00%     59.48% # Class of executed instruction
system.cpu.op_class::SimdSqrt                       0      0.00%     59.48% # Class of executed instruction
system.cpu.op_class::SimdFloatAdd                   0      0.00%     59.48% # Class of executed instruction
system.cpu.op_class::SimdFloatAlu                   0      0.00%     59.48% # Class of executed instruction
system.cpu.op_class::SimdFloatCmp                   0      0.00%     59.48% # Class of executed instruction
system.cpu.op_class::SimdFloatCvt                   0      0.00%     59.48% # Class of executed instruction
system.cpu.op_class::SimdFloatDiv                   0      0.00%     59.48% # Class of executed instruction
system.cpu.op_class::SimdFloatMisc                  0      0.00%     59.48% # Class of executed instruction
system.cpu.op_class::SimdFloatMult                  0      0.00%     59.48% # Class of executed instruction
system.cpu.op_class::SimdFloatMultAcc               0      0.00%     59.48% # Class of executed instruction
system.cpu.op_class::SimdFloatSqrt                  0      0.00%     59.48% # Class of executed instruction
system.cpu.op_class::MemRead                225946734     30.93%     90.41% # Class of executed instruction
system.cpu.op_class::MemWrite                70038703      9.59%    100.00% # Class of executed instruction
system.cpu.op_class::IprAccess                      0      0.00%    100.00% # Class of executed instruction
system.cpu.op_class::InstPrefetch                   0      0.00%    100.00% # Class of executed instruction
system.cpu.op_class::total                  730450481                       # Class of executed instruction
system.cpu.dcache.tags.replacements           2042531                       # number of replacements
system.cpu.dcache.tags.tagsinuse          2042.165965                       # Cycle average of tags in use
system.cpu.dcache.tags.total_refs           293940866                       # Total number of references to valid blocks.
system.cpu.dcache.tags.sampled_refs           2044579                       # Sample count of references to valid blocks.
system.cpu.dcache.tags.avg_refs            143.765962                       # Average number of references to valid blocks.
system.cpu.dcache.tags.warmup_cycle        3524748500                       # Cycle when the warmup percentage was hit.
system.cpu.dcache.tags.occ_blocks::cpu.data  2042.165965                       # Average occupied blocks per requestor
system.cpu.dcache.tags.occ_percent::cpu.data     0.997151                       # Average percentage of cache occupancy
system.cpu.dcache.tags.occ_percent::total     0.997151                       # Average percentage of cache occupancy
system.cpu.dcache.tags.occ_task_id_blocks::1024         2048                       # Occupied blocks per task id
system.cpu.dcache.tags.age_task_id_blocks_1024::1            2                       # Occupied blocks per task id
system.cpu.dcache.tags.age_task_id_blocks_1024::2           16                       # Occupied blocks per task id
system.cpu.dcache.tags.age_task_id_blocks_1024::3         1422                       # Occupied blocks per task id
system.cpu.dcache.tags.age_task_id_blocks_1024::4          608                       # Occupied blocks per task id
system.cpu.dcache.tags.occ_task_id_percent::1024            1                       # Percentage of cache occupancy per task id
system.cpu.dcache.tags.tag_accesses         594015469                       # Number of tag accesses
system.cpu.dcache.tags.data_accesses        594015469                       # Number of data accesses
system.cpu.dcache.ReadReq_hits::cpu.data    224491166                       # number of ReadReq hits
system.cpu.dcache.ReadReq_hits::total       224491166                       # number of ReadReq hits
system.cpu.dcache.WriteReq_hits::cpu.data     69449700                       # number of WriteReq hits
system.cpu.dcache.WriteReq_hits::total       69449700                       # number of WriteReq hits
system.cpu.dcache.demand_hits::cpu.data     293940866                       # number of demand (read+write) hits
system.cpu.dcache.demand_hits::total        293940866                       # number of demand (read+write) hits
system.cpu.dcache.overall_hits::cpu.data    293940866                       # number of overall hits
system.cpu.dcache.overall_hits::total       293940866                       # number of overall hits
system.cpu.dcache.ReadReq_misses::cpu.data      1439192                       # number of ReadReq misses
system.cpu.dcache.ReadReq_misses::total       1439192                       # number of ReadReq misses
system.cpu.dcache.WriteReq_misses::cpu.data       589003                       # number of WriteReq misses
system.cpu.dcache.WriteReq_misses::total       589003                       # number of WriteReq misses
system.cpu.dcache.SoftPFReq_misses::cpu.data        16384                       # number of SoftPFReq misses
system.cpu.dcache.SoftPFReq_misses::total        16384                       # number of SoftPFReq misses
system.cpu.dcache.demand_misses::cpu.data      2028195                       # number of demand (read+write) misses
system.cpu.dcache.demand_misses::total        2028195                       # number of demand (read+write) misses
system.cpu.dcache.overall_misses::cpu.data      2044579                       # number of overall misses
system.cpu.dcache.overall_misses::total       2044579                       # number of overall misses
system.cpu.dcache.ReadReq_miss_latency::cpu.data  40716835000                       # number of ReadReq miss cycles
system.cpu.dcache.ReadReq_miss_latency::total  40716835000                       # number of ReadReq miss cycles
system.cpu.dcache.WriteReq_miss_latency::cpu.data  31749659500                       # number of WriteReq miss cycles
system.cpu.dcache.WriteReq_miss_latency::total  31749659500                       # number of WriteReq miss cycles
system.cpu.dcache.demand_miss_latency::cpu.data  72466494500                       # number of demand (read+write) miss cycles
system.cpu.dcache.demand_miss_latency::total  72466494500                       # number of demand (read+write) miss cycles
system.cpu.dcache.overall_miss_latency::cpu.data  72466494500                       # number of overall miss cycles
system.cpu.dcache.overall_miss_latency::total  72466494500                       # number of overall miss cycles
system.cpu.dcache.ReadReq_accesses::cpu.data    225930358                       # number of ReadReq accesses(hits+misses)
system.cpu.dcache.ReadReq_accesses::total    225930358                       # number of ReadReq accesses(hits+misses)
system.cpu.dcache.WriteReq_accesses::cpu.data     70038703                       # number of WriteReq accesses(hits+misses)
system.cpu.dcache.WriteReq_accesses::total     70038703                       # number of WriteReq accesses(hits+misses)
system.cpu.dcache.SoftPFReq_accesses::cpu.data        16384                       # number of SoftPFReq accesses(hits+misses)
system.cpu.dcache.SoftPFReq_accesses::total        16384                       # number of SoftPFReq accesses(hits+misses)
system.cpu.dcache.demand_accesses::cpu.data    295969061                       # number of demand (read+write) accesses
system.cpu.dcache.demand_accesses::total    295969061                       # number of demand (read+write) accesses
system.cpu.dcache.overall_accesses::cpu.data    295985445                       # number of overall (read+write) accesses
system.cpu.dcache.overall_accesses::total    295985445                       # number of overall (read+write) accesses
system.cpu.dcache.ReadReq_miss_rate::cpu.data     0.006370                       # miss rate for ReadReq accesses
system.cpu.dcache.ReadReq_miss_rate::total     0.006370                       # miss rate for ReadReq accesses
system.cpu.dcache.WriteReq_miss_rate::cpu.data     0.008410                       # miss rate for WriteReq accesses
system.cpu.dcache.WriteReq_miss_rate::total     0.008410                       # miss rate for WriteReq accesses
system.cpu.dcache.SoftPFReq_miss_rate::cpu.data            1                       # miss rate for SoftPFReq accesses
system.cpu.dcache.SoftPFReq_miss_rate::total            1                       # miss rate for SoftPFReq accesses
system.cpu.dcache.demand_miss_rate::cpu.data     0.006853                       # miss rate for demand accesses
system.cpu.dcache.demand_miss_rate::total     0.006853                       # miss rate for demand accesses
system.cpu.dcache.overall_miss_rate::cpu.data     0.006908                       # miss rate for overall accesses
system.cpu.dcache.overall_miss_rate::total     0.006908                       # miss rate for overall accesses
system.cpu.dcache.ReadReq_avg_miss_latency::cpu.data 28291.454511                       # average ReadReq miss latency
system.cpu.dcache.ReadReq_avg_miss_latency::total 28291.454511                       # average ReadReq miss latency
system.cpu.dcache.WriteReq_avg_miss_latency::cpu.data 53904.070947                       # average WriteReq miss latency
system.cpu.dcache.WriteReq_avg_miss_latency::total 53904.070947                       # average WriteReq miss latency
system.cpu.dcache.demand_avg_miss_latency::cpu.data 35729.549920                       # average overall miss latency
system.cpu.dcache.demand_avg_miss_latency::total 35729.549920                       # average overall miss latency
system.cpu.dcache.overall_avg_miss_latency::cpu.data 35443.235258                       # average overall miss latency
system.cpu.dcache.overall_avg_miss_latency::total 35443.235258                       # average overall miss latency
system.cpu.dcache.blocked_cycles::no_mshrs       237786                       # number of cycles access was blocked
system.cpu.dcache.blocked_cycles::no_targets            0                       # number of cycles access was blocked
system.cpu.dcache.blocked::no_mshrs              5439                       # number of cycles access was blocked
system.cpu.dcache.blocked::no_targets               0                       # number of cycles access was blocked
system.cpu.dcache.avg_blocked_cycles::no_mshrs    43.718698                       # average number of cycles each access was blocked
system.cpu.dcache.avg_blocked_cycles::no_targets          nan                       # average number of cycles each access was blocked
system.cpu.dcache.fast_writes                       0                       # number of fast writes performed
system.cpu.dcache.cache_copies                      0                       # number of cache copies performed
system.cpu.dcache.writebacks::writebacks       961734                       # number of writebacks
system.cpu.dcache.writebacks::total            961734                       # number of writebacks
system.cpu.dcache.ReadReq_mshr_misses::cpu.data      1439192                       # number of ReadReq MSHR misses
system.cpu.dcache.ReadReq_mshr_misses::total      1439192                       # number of ReadReq MSHR misses
system.cpu.dcache.WriteReq_mshr_misses::cpu.data       589003                       # number of WriteReq MSHR misses
system.cpu.dcache.WriteReq_mshr_misses::total       589003                       # number of WriteReq MSHR misses
system.cpu.dcache.SoftPFReq_mshr_misses::cpu.data        16384                       # number of SoftPFReq MSHR misses
system.cpu.dcache.SoftPFReq_mshr_misses::total        16384                       # number of SoftPFReq MSHR misses
system.cpu.dcache.demand_mshr_misses::cpu.data      2028195                       # number of demand (read+write) MSHR misses
system.cpu.dcache.demand_mshr_misses::total      2028195                       # number of demand (read+write) MSHR misses
system.cpu.dcache.overall_mshr_misses::cpu.data      2044579                       # number of overall MSHR misses
system.cpu.dcache.overall_mshr_misses::total      2044579                       # number of overall MSHR misses
system.cpu.dcache.ReadReq_mshr_miss_latency::cpu.data  39277643000                       # number of ReadReq MSHR miss cycles
system.cpu.dcache.ReadReq_mshr_miss_latency::total  39277643000                       # number of ReadReq MSHR miss cycles
system.cpu.dcache.WriteReq_mshr_miss_latency::cpu.data  31160656500                       # number of WriteReq MSHR miss cycles
system.cpu.dcache.WriteReq_mshr_miss_latency::total  31160656500                       # number of WriteReq MSHR miss cycles
system.cpu.dcache.SoftPFReq_mshr_miss_latency::cpu.data   1290988984                       # number of SoftPFReq MSHR miss cycles
system.cpu.dcache.SoftPFReq_mshr_miss_latency::total   1290988984                       # number of SoftPFReq MSHR miss cycles
system.cpu.dcache.demand_mshr_miss_latency::cpu.data  70438299500                       # number of demand (read+write) MSHR miss cycles
system.cpu.dcache.demand_mshr_miss_latency::total  70438299500                       # number of demand (read+write) MSHR miss cycles
system.cpu.dcache.overall_mshr_miss_latency::cpu.data  71729288484                       # number of overall MSHR miss cycles
system.cpu.dcache.overall_mshr_miss_latency::total  71729288484                       # number of overall MSHR miss cycles
system.cpu.dcache.ReadReq_mshr_miss_rate::cpu.data     0.006370                       # mshr miss rate for ReadReq accesses
system.cpu.dcache.ReadReq_mshr_miss_rate::total     0.006370                       # mshr miss rate for ReadReq accesses
system.cpu.dcache.WriteReq_mshr_miss_rate::cpu.data     0.008410                       # mshr miss rate for WriteReq accesses
system.cpu.dcache.WriteReq_mshr_miss_rate::total     0.008410                       # mshr miss rate for WriteReq accesses
system.cpu.dcache.SoftPFReq_mshr_miss_rate::cpu.data            1                       # mshr miss rate for SoftPFReq accesses
system.cpu.dcache.SoftPFReq_mshr_miss_rate::total            1                       # mshr miss rate for SoftPFReq accesses
system.cpu.dcache.demand_mshr_miss_rate::cpu.data     0.006853                       # mshr miss rate for demand accesses
system.cpu.dcache.demand_mshr_miss_rate::total     0.006853                       # mshr miss rate for demand accesses
system.cpu.dcache.overall_mshr_miss_rate::cpu.data     0.006908                       # mshr miss rate for overall accesses
system.cpu.dcache.overall_mshr_miss_rate::total     0.006908                       # mshr miss rate for overall accesses
system.cpu.dcache.ReadReq_avg_mshr_miss_latency::cpu.data 27291.454511                       # average ReadReq mshr miss latency
system.cpu.dcache.ReadReq_avg_mshr_miss_latency::total 27291.454511                       # average ReadReq mshr miss latency
system.cpu.dcache.WriteReq_avg_mshr_miss_latency::cpu.data 52904.070947                       # average WriteReq mshr miss latency
system.cpu.dcache.WriteReq_avg_mshr_miss_latency::total 52904.070947                       # average WriteReq mshr miss latency
system.cpu.dcache.SoftPFReq_avg_mshr_miss_latency::cpu.data 78795.714355                       # average SoftPFReq mshr miss latency
system.cpu.dcache.SoftPFReq_avg_mshr_miss_latency::total 78795.714355                       # average SoftPFReq mshr miss latency
system.cpu.dcache.demand_avg_mshr_miss_latency::cpu.data 34729.549920                       # average overall mshr miss latency
system.cpu.dcache.demand_avg_mshr_miss_latency::total 34729.549920                       # average overall mshr miss latency
system.cpu.dcache.overall_avg_mshr_miss_latency::cpu.data 35082.669089                       # average overall mshr miss latency
system.cpu.dcache.overall_avg_mshr_miss_latency::total 35082.669089                       # average overall mshr miss latency
system.cpu.dcache.no_allocate_misses                0                       # Number of misses that were no-allocate
system.cpu.dtb_walker_cache.tags.replacements            0                       # number of replacements
system.cpu.dtb_walker_cache.tags.tagsinuse            0                       # Cycle average of tags in use
system.cpu.dtb_walker_cache.tags.total_refs            0                       # Total number of references to valid blocks.
system.cpu.dtb_walker_cache.tags.sampled_refs            0                       # Sample count of references to valid blocks.
system.cpu.dtb_walker_cache.tags.avg_refs          nan                       # Average number of references to valid blocks.
system.cpu.dtb_walker_cache.tags.warmup_cycle            0                       # Cycle when the warmup percentage was hit.
system.cpu.dtb_walker_cache.tags.tag_accesses            0                       # Number of tag accesses
system.cpu.dtb_walker_cache.tags.data_accesses            0                       # Number of data accesses
system.cpu.dtb_walker_cache.blocked_cycles::no_mshrs            0                       # number of cycles access was blocked
system.cpu.dtb_walker_cache.blocked_cycles::no_targets            0                       # number of cycles access was blocked
system.cpu.dtb_walker_cache.blocked::no_mshrs            0                       # number of cycles access was blocked
system.cpu.dtb_walker_cache.blocked::no_targets            0                       # number of cycles access was blocked
system.cpu.dtb_walker_cache.avg_blocked_cycles::no_mshrs          nan                       # average number of cycles each access was blocked
system.cpu.dtb_walker_cache.avg_blocked_cycles::no_targets          nan                       # average number of cycles each access was blocked
system.cpu.dtb_walker_cache.fast_writes             0                       # number of fast writes performed
system.cpu.dtb_walker_cache.cache_copies            0                       # number of cache copies performed
system.cpu.dtb_walker_cache.no_allocate_misses            0                       # Number of misses that were no-allocate
system.cpu.icache.tags.replacements                45                       # number of replacements
system.cpu.icache.tags.tagsinuse           670.803628                       # Cycle average of tags in use
system.cpu.icache.tags.total_refs           687396859                       # Total number of references to valid blocks.
system.cpu.icache.tags.sampled_refs              1001                       # Sample count of references to valid blocks.
system.cpu.icache.tags.avg_refs          686710.148851                       # Average number of references to valid blocks.
system.cpu.icache.tags.warmup_cycle                 0                       # Cycle when the warmup percentage was hit.
system.cpu.icache.tags.occ_blocks::cpu.inst   670.803628                       # Average occupied blocks per requestor
system.cpu.icache.tags.occ_percent::cpu.inst     0.327541                       # Average percentage of cache occupancy
system.cpu.icache.tags.occ_percent::total     0.327541                       # Average percentage of cache occupancy
system.cpu.icache.tags.occ_task_id_blocks::1024          956                       # Occupied blocks per task id
system.cpu.icache.tags.age_task_id_blocks_1024::1            7                       # Occupied blocks per task id
system.cpu.icache.tags.age_task_id_blocks_1024::3           25                       # Occupied blocks per task id
system.cpu.icache.tags.age_task_id_blocks_1024::4          924                       # Occupied blocks per task id
system.cpu.icache.tags.occ_task_id_percent::1024     0.466797                       # Percentage of cache occupancy per task id
system.cpu.icache.tags.tag_accesses        1374796721                       # Number of tag accesses
system.cpu.icache.tags.data_accesses       1374796721                       # Number of data accesses
system.cpu.icache.ReadReq_hits::cpu.inst    687396859                       # number of ReadReq hits
system.cpu.icache.ReadReq_hits::total       687396859                       # number of ReadReq hits
system.cpu.icache.demand_hits::cpu.inst     687396859                       # number of demand (read+write) hits
system.cpu.icache.demand_hits::total        687396859                       # number of demand (read+write) hits
system.cpu.icache.overall_hits::cpu.inst    687396859                       # number of overall hits
system.cpu.icache.overall_hits::total       687396859                       # number of overall hits
system.cpu.icache.ReadReq_misses::cpu.inst         1001                       # number of ReadReq misses
system.cpu.icache.ReadReq_misses::total          1001                       # number of ReadReq misses
system.cpu.icache.demand_misses::cpu.inst         1001                       # number of demand (read+write) misses
system.cpu.icache.demand_misses::total           1001                       # number of demand (read+write) misses
system.cpu.icache.overall_misses::cpu.inst         1001                       # number of overall misses
system.cpu.icache.overall_misses::total          1001                       # number of overall misses
system.cpu.icache.ReadReq_miss_latency::cpu.inst     79812500                       # number of ReadReq miss cycles
system.cpu.icache.ReadReq_miss_latency::total     79812500                       # number of ReadReq miss cycles
system.cpu.icache.demand_miss_latency::cpu.inst     79812500                       # number of demand (read+write) miss cycles
system.cpu.icache.demand_miss_latency::total     79812500                       # number of demand (read+write) miss cycles
system.cpu.icache.overall_miss_latency::cpu.inst     79812500                       # number of overall miss cycles
system.cpu.icache.overall_miss_latency::total     79812500                       # number of overall miss cycles
system.cpu.icache.ReadReq_accesses::cpu.inst    687397860                       # number of ReadReq accesses(hits+misses)
system.cpu.icache.ReadReq_accesses::total    687397860                       # number of ReadReq accesses(hits+misses)
system.cpu.icache.demand_accesses::cpu.inst    687397860                       # number of demand (read+write) accesses
system.cpu.icache.demand_accesses::total    687397860                       # number of demand (read+write) accesses
system.cpu.icache.overall_accesses::cpu.inst    687397860                       # number of overall (read+write) accesses
system.cpu.icache.overall_accesses::total    687397860                       # number of overall (read+write) accesses
system.cpu.icache.ReadReq_miss_rate::cpu.inst     0.000001                       # miss rate for ReadReq accesses
system.cpu.icache.ReadReq_miss_rate::total     0.000001                       # miss rate for ReadReq accesses
system.cpu.icache.demand_miss_rate::cpu.inst     0.000001                       # miss rate for demand accesses
system.cpu.icache.demand_miss_rate::total     0.000001                       # miss rate for demand accesses
system.cpu.icache.overall_miss_rate::cpu.inst     0.000001                       # miss rate for overall accesses
system.cpu.icache.overall_miss_rate::total     0.000001                       # miss rate for overall accesses
system.cpu.icache.ReadReq_avg_miss_latency::cpu.inst 79732.767233                       # average ReadReq miss latency
system.cpu.icache.ReadReq_avg_miss_latency::total 79732.767233                       # average ReadReq miss latency
system.cpu.icache.demand_avg_miss_latency::cpu.inst 79732.767233                       # average overall miss latency
system.cpu.icache.demand_avg_miss_latency::total 79732.767233                       # average overall miss latency
system.cpu.icache.overall_avg_miss_latency::cpu.inst 79732.767233                       # average overall miss latency
system.cpu.icache.overall_avg_miss_latency::total 79732.767233                       # average overall miss latency
system.cpu.icache.blocked_cycles::no_mshrs            0                       # number of cycles access was blocked
system.cpu.icache.blocked_cycles::no_targets            0                       # number of cycles access was blocked
system.cpu.icache.blocked::no_mshrs                 0                       # number of cycles access was blocked
system.cpu.icache.blocked::no_targets               0                       # number of cycles access was blocked
system.cpu.icache.avg_blocked_cycles::no_mshrs          nan                       # average number of cycles each access was blocked
system.cpu.icache.avg_blocked_cycles::no_targets          nan                       # average number of cycles each access was blocked
system.cpu.icache.fast_writes                       0                       # number of fast writes performed
system.cpu.icache.cache_copies                      0                       # number of cache copies performed
system.cpu.icache.writebacks::writebacks           45                       # number of writebacks
system.cpu.icache.writebacks::total                45                       # number of writebacks
system.cpu.icache.ReadReq_mshr_misses::cpu.inst         1001                       # number of ReadReq MSHR misses
system.cpu.icache.ReadReq_mshr_misses::total         1001                       # number of ReadReq MSHR misses
system.cpu.icache.demand_mshr_misses::cpu.inst         1001                       # number of demand (read+write) MSHR misses
system.cpu.icache.demand_mshr_misses::total         1001                       # number of demand (read+write) MSHR misses
system.cpu.icache.overall_mshr_misses::cpu.inst         1001                       # number of overall MSHR misses
system.cpu.icache.overall_mshr_misses::total         1001                       # number of overall MSHR misses
system.cpu.icache.ReadReq_mshr_miss_latency::cpu.inst     78811500                       # number of ReadReq MSHR miss cycles
system.cpu.icache.ReadReq_mshr_miss_latency::total     78811500                       # number of ReadReq MSHR miss cycles
system.cpu.icache.demand_mshr_miss_latency::cpu.inst     78811500                       # number of demand (read+write) MSHR miss cycles
system.cpu.icache.demand_mshr_miss_latency::total     78811500                       # number of demand (read+write) MSHR miss cycles
system.cpu.icache.overall_mshr_miss_latency::cpu.inst     78811500                       # number of overall MSHR miss cycles
system.cpu.icache.overall_mshr_miss_latency::total     78811500                       # number of overall MSHR miss cycles
system.cpu.icache.ReadReq_mshr_miss_rate::cpu.inst     0.000001                       # mshr miss rate for ReadReq accesses
system.cpu.icache.ReadReq_mshr_miss_rate::total     0.000001                       # mshr miss rate for ReadReq accesses
system.cpu.icache.demand_mshr_miss_rate::cpu.inst     0.000001                       # mshr miss rate for demand accesses
system.cpu.icache.demand_mshr_miss_rate::total     0.000001                       # mshr miss rate for demand accesses
system.cpu.icache.overall_mshr_miss_rate::cpu.inst     0.000001                       # mshr miss rate for overall accesses
system.cpu.icache.overall_mshr_miss_rate::total     0.000001                       # mshr miss rate for overall accesses
system.cpu.icache.ReadReq_avg_mshr_miss_latency::cpu.inst 78732.767233                       # average ReadReq mshr miss latency
system.cpu.icache.ReadReq_avg_mshr_miss_latency::total 78732.767233                       # average ReadReq mshr miss latency
system.cpu.icache.demand_avg_mshr_miss_latency::cpu.inst 78732.767233                       # average overall mshr miss latency
system.cpu.icache.demand_avg_mshr_miss_latency::total 78732.767233                       # average overall mshr miss latency
system.cpu.icache.overall_avg_mshr_miss_latency::cpu.inst 78732.767233                       # average overall mshr miss latency
system.cpu.icache.overall_avg_mshr_miss_latency::total 78732.767233                       # average overall mshr miss latency
system.cpu.icache.no_allocate_misses                0                       # Number of misses that were no-allocate
system.cpu.itb_walker_cache.tags.replacements            0                       # number of replacements
system.cpu.itb_walker_cache.tags.tagsinuse            0                       # Cycle average of tags in use
system.cpu.itb_walker_cache.tags.total_refs            0                       # Total number of references to valid blocks.
system.cpu.itb_walker_cache.tags.sampled_refs            0                       # Sample count of references to valid blocks.
system.cpu.itb_walker_cache.tags.avg_refs          nan                       # Average number of references to valid blocks.
system.cpu.itb_walker_cache.tags.warmup_cycle            0                       # Cycle when the warmup percentage was hit.
system.cpu.itb_walker_cache.tags.tag_accesses            0                       # Number of tag accesses
system.cpu.itb_walker_cache.tags.data_accesses            0                       # Number of data accesses
system.cpu.itb_walker_cache.blocked_cycles::no_mshrs            0                       # number of cycles access was blocked
system.cpu.itb_walker_cache.blocked_cycles::no_targets            0                       # number of cycles access was blocked
system.cpu.itb_walker_cache.blocked::no_mshrs            0                       # number of cycles access was blocked
system.cpu.itb_walker_cache.blocked::no_targets            0                       # number of cycles access was blocked
system.cpu.itb_walker_cache.avg_blocked_cycles::no_mshrs          nan                       # average number of cycles each access was blocked
system.cpu.itb_walker_cache.avg_blocked_cycles::no_targets          nan                       # average number of cycles each access was blocked
system.cpu.itb_walker_cache.fast_writes             0                       # number of fast writes performed
system.cpu.itb_walker_cache.cache_copies            0                       # number of cache copies performed
system.cpu.itb_walker_cache.no_allocate_misses            0                       # Number of misses that were no-allocate
system.l2.tags.replacements                    632071                       # number of replacements
system.l2.tags.tagsinuse                 15689.245843                       # Cycle average of tags in use
system.l2.tags.total_refs                     2839324                       # Total number of references to valid blocks.
system.l2.tags.sampled_refs                    648147                       # Sample count of references to valid blocks.
system.l2.tags.avg_refs                      4.380679                       # Average number of references to valid blocks.
system.l2.tags.warmup_cycle                3964960000                       # Cycle when the warmup percentage was hit.
system.l2.tags.occ_blocks::writebacks     6264.025008                       # Average occupied blocks per requestor
system.l2.tags.occ_blocks::cpu.inst         17.250261                       # Average occupied blocks per requestor
system.l2.tags.occ_blocks::cpu.data       9407.970574                       # Average occupied blocks per requestor
system.l2.tags.occ_percent::writebacks       0.382326                       # Average percentage of cache occupancy
system.l2.tags.occ_percent::cpu.inst         0.001053                       # Average percentage of cache occupancy
system.l2.tags.occ_percent::cpu.data         0.574217                       # Average percentage of cache occupancy
system.l2.tags.occ_percent::total            0.957596                       # Average percentage of cache occupancy
system.l2.tags.occ_task_id_blocks::1024         16076                       # Occupied blocks per task id
system.l2.tags.age_task_id_blocks_1024::1            9                       # Occupied blocks per task id
system.l2.tags.age_task_id_blocks_1024::2           10                       # Occupied blocks per task id
system.l2.tags.age_task_id_blocks_1024::3           38                       # Occupied blocks per task id
system.l2.tags.age_task_id_blocks_1024::4        16019                       # Occupied blocks per task id
system.l2.tags.occ_task_id_percent::1024     0.981201                       # Percentage of cache occupancy per task id
system.l2.tags.tag_accesses                   9413460                       # Number of tag accesses
system.l2.tags.data_accesses                  9413460                       # Number of data accesses
system.l2.WritebackDirty_hits::writebacks       961734                       # number of WritebackDirty hits
system.l2.WritebackDirty_hits::total           961734                       # number of WritebackDirty hits
system.l2.WritebackClean_hits::writebacks           45                       # number of WritebackClean hits
system.l2.WritebackClean_hits::total               45                       # number of WritebackClean hits
system.l2.ReadExReq_hits::cpu.data             267349                       # number of ReadExReq hits
system.l2.ReadExReq_hits::total                267349                       # number of ReadExReq hits
system.l2.ReadCleanReq_hits::cpu.inst               1                       # number of ReadCleanReq hits
system.l2.ReadCleanReq_hits::total                  1                       # number of ReadCleanReq hits
system.l2.ReadSharedReq_hits::cpu.data        1132659                       # number of ReadSharedReq hits
system.l2.ReadSharedReq_hits::total           1132659                       # number of ReadSharedReq hits
system.l2.demand_hits::cpu.inst                     1                       # number of demand (read+write) hits
system.l2.demand_hits::cpu.data               1400008                       # number of demand (read+write) hits
system.l2.demand_hits::total                  1400009                       # number of demand (read+write) hits
system.l2.overall_hits::cpu.inst                    1                       # number of overall hits
system.l2.overall_hits::cpu.data              1400008                       # number of overall hits
system.l2.overall_hits::total                 1400009                       # number of overall hits
system.l2.ReadExReq_misses::cpu.data           321654                       # number of ReadExReq misses
system.l2.ReadExReq_misses::total              321654                       # number of ReadExReq misses
system.l2.ReadCleanReq_misses::cpu.inst          1000                       # number of ReadCleanReq misses
system.l2.ReadCleanReq_misses::total             1000                       # number of ReadCleanReq misses
system.l2.ReadSharedReq_misses::cpu.data       322917                       # number of ReadSharedReq misses
system.l2.ReadSharedReq_misses::total          322917                       # number of ReadSharedReq misses
system.l2.demand_misses::cpu.inst                1000                       # number of demand (read+write) misses
system.l2.demand_misses::cpu.data              644571                       # number of demand (read+write) misses
system.l2.demand_misses::total                 645571                       # number of demand (read+write) misses
system.l2.overall_misses::cpu.inst               1000                       # number of overall misses
system.l2.overall_misses::cpu.data             644571                       # number of overall misses
system.l2.overall_misses::total                645571                       # number of overall misses
system.l2.ReadExReq_miss_latency::cpu.data  27469986500                       # number of ReadExReq miss cycles
system.l2.ReadExReq_miss_latency::total   27469986500                       # number of ReadExReq miss cycles
system.l2.ReadCleanReq_miss_latency::cpu.inst     77298000                       # number of ReadCleanReq miss cycles
system.l2.ReadCleanReq_miss_latency::total     77298000                       # number of ReadCleanReq miss cycles
system.l2.ReadSharedReq_miss_latency::cpu.data  26492302500                       # number of ReadSharedReq miss cycles
system.l2.ReadSharedReq_miss_latency::total  26492302500                       # number of ReadSharedReq miss cycles
system.l2.demand_miss_latency::cpu.inst      77298000                       # number of demand (read+write) miss cycles
system.l2.demand_miss_latency::cpu.data   53962289000                       # number of demand (read+write) miss cycles
system.l2.demand_miss_latency::total      54039587000                       # number of demand (read+write) miss cycles
system.l2.overall_miss_latency::cpu.inst     77298000                       # number of overall miss cycles
system.l2.overall_miss_latency::cpu.data  53962289000                       # number of overall miss cycles
system.l2.overall_miss_latency::total     54039587000                       # number of overall miss cycles
system.l2.WritebackDirty_accesses::writebacks       961734                       # number of WritebackDirty accesses(hits+misses)
system.l2.WritebackDirty_accesses::total       961734                       # number of WritebackDirty accesses(hits+misses)
system.l2.WritebackClean_accesses::writebacks           45                       # number of WritebackClean accesses(hits+misses)
system.l2.WritebackClean_accesses::total           45                       # number of WritebackClean accesses(hits+misses)
system.l2.ReadExReq_accesses::cpu.data         589003                       # number of ReadExReq accesses(hits+misses)
system.l2.ReadExReq_accesses::total            589003                       # number of ReadExReq accesses(hits+misses)
system.l2.ReadCleanReq_accesses::cpu.inst         1001                       # number of ReadCleanReq accesses(hits+misses)
system.l2.ReadCleanReq_accesses::total           1001                       # number of ReadCleanReq accesses(hits+misses)
system.l2.ReadSharedReq_accesses::cpu.data      1455576                       # number of ReadSharedReq accesses(hits+misses)
system.l2.ReadSharedReq_accesses::total       1455576                       # number of ReadSharedReq accesses(hits+misses)
system.l2.demand_accesses::cpu.inst              1001                       # number of demand (read+write) accesses
system.l2.demand_accesses::cpu.data           2044579                       # number of demand (read+write) accesses
system.l2.demand_accesses::total              2045580                       # number of demand (read+write) accesses
system.l2.overall_accesses::cpu.inst             1001                       # number of overall (read+write) accesses
system.l2.overall_accesses::cpu.data          2044579                       # number of overall (read+write) accesses
system.l2.overall_accesses::total             2045580                       # number of overall (read+write) accesses
system.l2.ReadExReq_miss_rate::cpu.data      0.546099                       # miss rate for ReadExReq accesses
system.l2.ReadExReq_miss_rate::total         0.546099                       # miss rate for ReadExReq accesses
system.l2.ReadCleanReq_miss_rate::cpu.inst     0.999001                       # miss rate for ReadCleanReq accesses
system.l2.ReadCleanReq_miss_rate::total      0.999001                       # miss rate for ReadCleanReq accesses
system.l2.ReadSharedReq_miss_rate::cpu.data     0.221848                       # miss rate for ReadSharedReq accesses
system.l2.ReadSharedReq_miss_rate::total     0.221848                       # miss rate for ReadSharedReq accesses
system.l2.demand_miss_rate::cpu.inst         0.999001                       # miss rate for demand accesses
system.l2.demand_miss_rate::cpu.data         0.315259                       # miss rate for demand accesses
system.l2.demand_miss_rate::total            0.315593                       # miss rate for demand accesses
system.l2.overall_miss_rate::cpu.inst        0.999001                       # miss rate for overall accesses
system.l2.overall_miss_rate::cpu.data        0.315259                       # miss rate for overall accesses
system.l2.overall_miss_rate::total           0.315593                       # miss rate for overall accesses
system.l2.ReadExReq_avg_miss_latency::cpu.data 85402.284753                       # average ReadExReq miss latency
system.l2.ReadExReq_avg_miss_latency::total 85402.284753                       # average ReadExReq miss latency
system.l2.ReadCleanReq_avg_miss_latency::cpu.inst        77298                       # average ReadCleanReq miss latency
system.l2.ReadCleanReq_avg_miss_latency::total        77298                       # average ReadCleanReq miss latency
system.l2.ReadSharedReq_avg_miss_latency::cpu.data 82040.594023                       # average ReadSharedReq miss latency
system.l2.ReadSharedReq_avg_miss_latency::total 82040.594023                       # average ReadSharedReq miss latency
system.l2.demand_avg_miss_latency::cpu.inst        77298                       # average overall miss latency
system.l2.demand_avg_miss_latency::cpu.data 83718.145868                       # average overall miss latency
system.l2.demand_avg_miss_latency::total 83708.200957                       # average overall miss latency
system.l2.overall_avg_miss_latency::cpu.inst        77298                       # average overall miss latency
system.l2.overall_avg_miss_latency::cpu.data 83718.145868                       # average overall miss latency
system.l2.overall_avg_miss_latency::total 83708.200957                       # average overall miss latency
system.l2.blocked_cycles::no_mshrs                  0                       # number of cycles access was blocked
system.l2.blocked_cycles::no_targets                0                       # number of cycles access was blocked
system.l2.blocked::no_mshrs                         0                       # number of cycles access was blocked
system.l2.blocked::no_targets                       0                       # number of cycles access was blocked
system.l2.avg_blocked_cycles::no_mshrs            nan                       # average number of cycles each access was blocked
system.l2.avg_blocked_cycles::no_targets          nan                       # average number of cycles each access was blocked
system.l2.fast_writes                               0                       # number of fast writes performed
system.l2.cache_copies                              0                       # number of cache copies performed
system.l2.writebacks::writebacks               389911                       # number of writebacks
system.l2.writebacks::total                    389911                       # number of writebacks
system.l2.CleanEvict_mshr_misses::writebacks        11362                       # number of CleanEvict MSHR misses
system.l2.CleanEvict_mshr_misses::total         11362                       # number of CleanEvict MSHR misses
system.l2.ReadExReq_mshr_misses::cpu.data       321654                       # number of ReadExReq MSHR misses
system.l2.ReadExReq_mshr_misses::total         321654                       # number of ReadExReq MSHR misses
system.l2.ReadCleanReq_mshr_misses::cpu.inst         1000                       # number of ReadCleanReq MSHR misses
system.l2.ReadCleanReq_mshr_misses::total         1000                       # number of ReadCleanReq MSHR misses
system.l2.ReadSharedReq_mshr_misses::cpu.data       322917                       # number of ReadSharedReq MSHR misses
system.l2.ReadSharedReq_mshr_misses::total       322917                       # number of ReadSharedReq MSHR misses
system.l2.demand_mshr_misses::cpu.inst           1000                       # number of demand (read+write) MSHR misses
system.l2.demand_mshr_misses::cpu.data         644571                       # number of demand (read+write) MSHR misses
system.l2.demand_mshr_misses::total            645571                       # number of demand (read+write) MSHR misses
system.l2.overall_mshr_misses::cpu.inst          1000                       # number of overall MSHR misses
system.l2.overall_mshr_misses::cpu.data        644571                       # number of overall MSHR misses
system.l2.overall_mshr_misses::total           645571                       # number of overall MSHR misses
system.l2.ReadExReq_mshr_miss_latency::cpu.data  24253446500                       # number of ReadExReq MSHR miss cycles
system.l2.ReadExReq_mshr_miss_latency::total  24253446500                       # number of ReadExReq MSHR miss cycles
system.l2.ReadCleanReq_mshr_miss_latency::cpu.inst     67298000                       # number of ReadCleanReq MSHR miss cycles
system.l2.ReadCleanReq_mshr_miss_latency::total     67298000                       # number of ReadCleanReq MSHR miss cycles
system.l2.ReadSharedReq_mshr_miss_latency::cpu.data  23263132500                       # number of ReadSharedReq MSHR miss cycles
system.l2.ReadSharedReq_mshr_miss_latency::total  23263132500                       # number of ReadSharedReq MSHR miss cycles
system.l2.demand_mshr_miss_latency::cpu.inst     67298000                       # number of demand (read+write) MSHR miss cycles
system.l2.demand_mshr_miss_latency::cpu.data  47516579000                       # number of demand (read+write) MSHR miss cycles
system.l2.demand_mshr_miss_latency::total  47583877000                       # number of demand (read+write) MSHR miss cycles
system.l2.overall_mshr_miss_latency::cpu.inst     67298000                       # number of overall MSHR miss cycles
system.l2.overall_mshr_miss_latency::cpu.data  47516579000                       # number of overall MSHR miss cycles
system.l2.overall_mshr_miss_latency::total  47583877000                       # number of overall MSHR miss cycles
system.l2.CleanEvict_mshr_miss_rate::writebacks          inf                       # mshr miss rate for CleanEvict accesses
system.l2.CleanEvict_mshr_miss_rate::total          inf                       # mshr miss rate for CleanEvict accesses
system.l2.ReadExReq_mshr_miss_rate::cpu.data     0.546099                       # mshr miss rate for ReadExReq accesses
system.l2.ReadExReq_mshr_miss_rate::total     0.546099                       # mshr miss rate for ReadExReq accesses
system.l2.ReadCleanReq_mshr_miss_rate::cpu.inst     0.999001                       # mshr miss rate for ReadCleanReq accesses
system.l2.ReadCleanReq_mshr_miss_rate::total     0.999001                       # mshr miss rate for ReadCleanReq accesses
system.l2.ReadSharedReq_mshr_miss_rate::cpu.data     0.221848                       # mshr miss rate for ReadSharedReq accesses
system.l2.ReadSharedReq_mshr_miss_rate::total     0.221848                       # mshr miss rate for ReadSharedReq accesses
system.l2.demand_mshr_miss_rate::cpu.inst     0.999001                       # mshr miss rate for demand accesses
system.l2.demand_mshr_miss_rate::cpu.data     0.315259                       # mshr miss rate for demand accesses
system.l2.demand_mshr_miss_rate::total       0.315593                       # mshr miss rate for demand accesses
system.l2.overall_mshr_miss_rate::cpu.inst     0.999001                       # mshr miss rate for overall accesses
system.l2.overall_mshr_miss_rate::cpu.data     0.315259                       # mshr miss rate for overall accesses
system.l2.overall_mshr_miss_rate::total      0.315593                       # mshr miss rate for overall accesses
system.l2.ReadExReq_avg_mshr_miss_latency::cpu.data 75402.284753                       # average ReadExReq mshr miss latency
system.l2.ReadExReq_avg_mshr_miss_latency::total 75402.284753                       # average ReadExReq mshr miss latency
system.l2.ReadCleanReq_avg_mshr_miss_latency::cpu.inst        67298                       # average ReadCleanReq mshr miss latency
system.l2.ReadCleanReq_avg_mshr_miss_latency::total        67298                       # average ReadCleanReq mshr miss latency
system.l2.ReadSharedReq_avg_mshr_miss_latency::cpu.data 72040.594023                       # average ReadSharedReq mshr miss latency
system.l2.ReadSharedReq_avg_mshr_miss_latency::total 72040.594023                       # average ReadSharedReq mshr miss latency
system.l2.demand_avg_mshr_miss_latency::cpu.inst        67298                       # average overall mshr miss latency
system.l2.demand_avg_mshr_miss_latency::cpu.data 73718.145868                       # average overall mshr miss latency
system.l2.demand_avg_mshr_miss_latency::total 73708.200957                       # average overall mshr miss latency
system.l2.overall_avg_mshr_miss_latency::cpu.inst        67298                       # average overall mshr miss latency
system.l2.overall_avg_mshr_miss_latency::cpu.data 73718.145868                       # average overall mshr miss latency
system.l2.overall_avg_mshr_miss_latency::total 73708.200957                       # average overall mshr miss latency
system.l2.no_allocate_misses                        0                       # Number of misses that were no-allocate
system.membus.trans_dist::ReadResp             323917                       # Transaction distribution
system.membus.trans_dist::WritebackDirty       389911                       # Transaction distribution
system.membus.trans_dist::CleanEvict           238201                       # Transaction distribution
system.membus.trans_dist::ReadExReq            321654                       # Transaction distribution
system.membus.trans_dist::ReadExResp           321654                       # Transaction distribution
system.membus.trans_dist::ReadSharedReq        323917                       # Transaction distribution
system.membus.pkt_count_system.l2.mem_side::system.mem_ctrls.port      1919254                       # Packet count per connected master and slave (bytes)
system.membus.pkt_count_system.l2.mem_side::total      1919254                       # Packet count per connected master and slave (bytes)
system.membus.pkt_count::total                1919254                       # Packet count per connected master and slave (bytes)
system.membus.pkt_size_system.l2.mem_side::system.mem_ctrls.port     66270848                       # Cumulative packet size per connected master and slave (bytes)
system.membus.pkt_size_system.l2.mem_side::total     66270848                       # Cumulative packet size per connected master and slave (bytes)
system.membus.pkt_size::total                66270848                       # Cumulative packet size per connected master and slave (bytes)
system.membus.snoops                                0                       # Total snoops (count)
system.membus.snoop_fanout::samples           1273683                       # Request fanout histogram
system.membus.snoop_fanout::mean                    0                       # Request fanout histogram
system.membus.snoop_fanout::stdev                   0                       # Request fanout histogram
system.membus.snoop_fanout::underflows              0      0.00%      0.00% # Request fanout histogram
system.membus.snoop_fanout::0                 1273683    100.00%    100.00% # Request fanout histogram
system.membus.snoop_fanout::1                       0      0.00%    100.00% # Request fanout histogram
system.membus.snoop_fanout::overflows               0      0.00%    100.00% # Request fanout histogram
system.membus.snoop_fanout::min_value               0                       # Request fanout histogram
system.membus.snoop_fanout::max_value               0                       # Request fanout histogram
system.membus.snoop_fanout::total             1273683                       # Request fanout histogram
system.membus.reqLayer2.occupancy          2841339000                       # Layer occupancy (ticks)
system.membus.reqLayer2.utilization               0.3                       # Layer utilization (%)
system.membus.respLayer1.occupancy         3495100500                       # Layer occupancy (ticks)
system.membus.respLayer1.utilization              0.3                       # Layer utilization (%)
system.tol2bus.snoop_filter.tot_requests      4088156                       # Total number of requests made to the snoop filter.
system.tol2bus.snoop_filter.hit_single_requests      2042576                       # Number of requests hitting in the snoop filter with a single holder of the requested data.
system.tol2bus.snoop_filter.hit_multi_requests            1                       # Number of requests hitting in the snoop filter with multiple (>1) holders of the requested data.
system.tol2bus.snoop_filter.tot_snoops          15321                       # Total number of snoops made to the snoop filter.
system.tol2bus.snoop_filter.hit_single_snoops        15321                       # Number of snoops hitting in the snoop filter with a single holder of the requested data.
system.tol2bus.snoop_filter.hit_multi_snoops            0                       # Number of snoops hitting in the snoop filter with multiple (>1) holders of the requested data.
system.tol2bus.trans_dist::ReadResp           1456577                       # Transaction distribution
system.tol2bus.trans_dist::WritebackDirty      1351645                       # Transaction distribution
system.tol2bus.trans_dist::WritebackClean           45                       # Transaction distribution
system.tol2bus.trans_dist::CleanEvict         1322956                       # Transaction distribution
system.tol2bus.trans_dist::ReadExReq           589003                       # Transaction distribution
system.tol2bus.trans_dist::ReadExResp          589003                       # Transaction distribution
system.tol2bus.trans_dist::ReadCleanReq          1001                       # Transaction distribution
system.tol2bus.trans_dist::ReadSharedReq      1455576                       # Transaction distribution
system.tol2bus.pkt_count_system.cpu.icache.mem_side::system.l2.cpu_side         2047                       # Packet count per connected master and slave (bytes)
system.tol2bus.pkt_count_system.cpu.dcache.mem_side::system.l2.cpu_side      6131688                       # Packet count per connected master and slave (bytes)
system.tol2bus.pkt_count::total               6133735                       # Packet count per connected master and slave (bytes)
system.tol2bus.pkt_size_system.cpu.icache.mem_side::system.l2.cpu_side        66944                       # Cumulative packet size per connected master and slave (bytes)
system.tol2bus.pkt_size_system.cpu.dcache.mem_side::system.l2.cpu_side    192404032                       # Cumulative packet size per connected master and slave (bytes)
system.tol2bus.pkt_size::total              192470976                       # Cumulative packet size per connected master and slave (bytes)
system.tol2bus.snoops                          632071                       # Total snoops (count)
system.tol2bus.snoop_fanout::samples          2677651                       # Request fanout histogram
system.tol2bus.snoop_fanout::mean            0.005722                       # Request fanout histogram
system.tol2bus.snoop_fanout::stdev           0.075428                       # Request fanout histogram
system.tol2bus.snoop_fanout::underflows             0      0.00%      0.00% # Request fanout histogram
system.tol2bus.snoop_fanout::0                2662329     99.43%     99.43% # Request fanout histogram
system.tol2bus.snoop_fanout::1                  15322      0.57%    100.00% # Request fanout histogram
system.tol2bus.snoop_fanout::2                      0      0.00%    100.00% # Request fanout histogram
system.tol2bus.snoop_fanout::3                      0      0.00%    100.00% # Request fanout histogram
system.tol2bus.snoop_fanout::4                      0      0.00%    100.00% # Request fanout histogram
system.tol2bus.snoop_fanout::overflows              0      0.00%    100.00% # Request fanout histogram
system.tol2bus.snoop_fanout::min_value              0                       # Request fanout histogram
system.tol2bus.snoop_fanout::max_value              1                       # Request fanout histogram
system.tol2bus.snoop_fanout::total            2677651                       # Request fanout histogram
system.tol2bus.reqLayer0.occupancy         3005857000                       # Layer occupancy (ticks)
system.tol2bus.reqLayer0.utilization              0.3                       # Layer utilization (%)
system.tol2bus.respLayer0.occupancy           1501500                       # Layer occupancy (ticks)
system.tol2bus.respLayer0.utilization             0.0                       # Layer utilization (%)
system.tol2bus.respLayer1.occupancy        3066868500                       # Layer occupancy (ticks)
system.tol2bus.respLayer1.utilization             0.3                       # Layer utilization (%)

---------- End Simulation Statistics   ----------
