
---------- Begin Simulation Statistics ----------
sim_seconds                                  1.051391                       # Number of seconds simulated
sim_ticks                                1051390661500                       # Number of ticks simulated
final_tick                               1051390661500                       # Number of ticks from beginning of simulation (restored from checkpoints and never reset)
sim_freq                                 1000000000000                       # Frequency of simulated ticks
host_inst_rate                                  34485                       # Simulator instruction rate (inst/s)
host_op_rate                                    50380                       # Simulator op (including micro ops) rate (op/s)
host_tick_rate                               72515174                       # Simulator tick rate (ticks/s)
host_mem_usage                                 828416                       # Number of bytes of host memory used
host_seconds                                 14498.91                       # Real time elapsed on the host
sim_insts                                   500000000                       # Number of instructions simulated
sim_ops                                     730450481                       # Number of ops (including micro ops) simulated
system.voltage_domain.voltage                       1                       # Voltage in Volts
system.clk_domain.clock                          1000                       # Clock period in ticks
system.mem_ctrls.bytes_read::cpu.inst           64000                       # Number of bytes read from this memory
system.mem_ctrls.bytes_read::cpu.data        39217664                       # Number of bytes read from this memory
system.mem_ctrls.bytes_read::total           39281664                       # Number of bytes read from this memory
system.mem_ctrls.bytes_inst_read::cpu.inst        64000                       # Number of instructions bytes read from this memory
system.mem_ctrls.bytes_inst_read::total         64000                       # Number of instructions bytes read from this memory
system.mem_ctrls.bytes_written::writebacks     23605376                       # Number of bytes written to this memory
system.mem_ctrls.bytes_written::total        23605376                       # Number of bytes written to this memory
system.mem_ctrls.num_reads::cpu.inst             1000                       # Number of read requests responded to by this memory
system.mem_ctrls.num_reads::cpu.data           612776                       # Number of read requests responded to by this memory
system.mem_ctrls.num_reads::total              613776                       # Number of read requests responded to by this memory
system.mem_ctrls.num_writes::writebacks        368834                       # Number of write requests responded to by this memory
system.mem_ctrls.num_writes::total             368834                       # Number of write requests responded to by this memory
system.mem_ctrls.bw_read::cpu.inst              60872                       # Total read bandwidth from this memory (bytes/s)
system.mem_ctrls.bw_read::cpu.data           37300754                       # Total read bandwidth from this memory (bytes/s)
system.mem_ctrls.bw_read::total              37361625                       # Total read bandwidth from this memory (bytes/s)
system.mem_ctrls.bw_inst_read::cpu.inst         60872                       # Instruction read bandwidth from this memory (bytes/s)
system.mem_ctrls.bw_inst_read::total            60872                       # Instruction read bandwidth from this memory (bytes/s)
system.mem_ctrls.bw_write::writebacks        22451575                       # Write bandwidth from this memory (bytes/s)
system.mem_ctrls.bw_write::total             22451575                       # Write bandwidth from this memory (bytes/s)
system.mem_ctrls.bw_total::writebacks        22451575                       # Total bandwidth to/from this memory (bytes/s)
system.mem_ctrls.bw_total::cpu.inst             60872                       # Total bandwidth to/from this memory (bytes/s)
system.mem_ctrls.bw_total::cpu.data          37300754                       # Total bandwidth to/from this memory (bytes/s)
system.mem_ctrls.bw_total::total             59813200                       # Total bandwidth to/from this memory (bytes/s)
system.mem_ctrls.readReqs                      613776                       # Number of read requests accepted
system.mem_ctrls.writeReqs                     368834                       # Number of write requests accepted
system.mem_ctrls.readBursts                    613776                       # Number of DRAM read bursts, including those serviced by the write queue
system.mem_ctrls.writeBursts                   368834                       # Number of DRAM write bursts, including those merged in the write queue
system.mem_ctrls.bytesReadDRAM               39228352                       # Total number of bytes read from DRAM
system.mem_ctrls.bytesReadWrQ                   53312                       # Total number of bytes read from write queue
system.mem_ctrls.bytesWritten                23603584                       # Total number of bytes written to DRAM
system.mem_ctrls.bytesReadSys                39281664                       # Total read bytes from the system interface side
system.mem_ctrls.bytesWrittenSys             23605376                       # Total written bytes from the system interface side
system.mem_ctrls.servicedByWrQ                    833                       # Number of DRAM read bursts serviced by the write queue
system.mem_ctrls.mergedWrBursts                     0                       # Number of DRAM write bursts merged with an existing one
system.mem_ctrls.neitherReadNorWriteReqs       227495                       # Number of requests that are neither read nor write
system.mem_ctrls.perBankRdBursts::0             39424                       # Per bank write bursts
system.mem_ctrls.perBankRdBursts::1             38448                       # Per bank write bursts
system.mem_ctrls.perBankRdBursts::2             37627                       # Per bank write bursts
system.mem_ctrls.perBankRdBursts::3             37605                       # Per bank write bursts
system.mem_ctrls.perBankRdBursts::4             37353                       # Per bank write bursts
system.mem_ctrls.perBankRdBursts::5             37677                       # Per bank write bursts
system.mem_ctrls.perBankRdBursts::6             38274                       # Per bank write bursts
system.mem_ctrls.perBankRdBursts::7             38136                       # Per bank write bursts
system.mem_ctrls.perBankRdBursts::8             37579                       # Per bank write bursts
system.mem_ctrls.perBankRdBursts::9             37137                       # Per bank write bursts
system.mem_ctrls.perBankRdBursts::10            38393                       # Per bank write bursts
system.mem_ctrls.perBankRdBursts::11            38996                       # Per bank write bursts
system.mem_ctrls.perBankRdBursts::12            39045                       # Per bank write bursts
system.mem_ctrls.perBankRdBursts::13            38887                       # Per bank write bursts
system.mem_ctrls.perBankRdBursts::14            39278                       # Per bank write bursts
system.mem_ctrls.perBankRdBursts::15            39084                       # Per bank write bursts
system.mem_ctrls.perBankWrBursts::0             23842                       # Per bank write bursts
system.mem_ctrls.perBankWrBursts::1             22963                       # Per bank write bursts
system.mem_ctrls.perBankWrBursts::2             22413                       # Per bank write bursts
system.mem_ctrls.perBankWrBursts::3             22372                       # Per bank write bursts
system.mem_ctrls.perBankWrBursts::4             22148                       # Per bank write bursts
system.mem_ctrls.perBankWrBursts::5             21955                       # Per bank write bursts
system.mem_ctrls.perBankWrBursts::6             22277                       # Per bank write bursts
system.mem_ctrls.perBankWrBursts::7             22874                       # Per bank write bursts
system.mem_ctrls.perBankWrBursts::8             23493                       # Per bank write bursts
system.mem_ctrls.perBankWrBursts::9             23298                       # Per bank write bursts
system.mem_ctrls.perBankWrBursts::10            23416                       # Per bank write bursts
system.mem_ctrls.perBankWrBursts::11            23215                       # Per bank write bursts
system.mem_ctrls.perBankWrBursts::12            23274                       # Per bank write bursts
system.mem_ctrls.perBankWrBursts::13            23618                       # Per bank write bursts
system.mem_ctrls.perBankWrBursts::14            23982                       # Per bank write bursts
system.mem_ctrls.perBankWrBursts::15            23666                       # Per bank write bursts
system.mem_ctrls.numRdRetry                         0                       # Number of times read queue was full causing retry
system.mem_ctrls.numWrRetry                         0                       # Number of times write queue was full causing retry
system.mem_ctrls.totGap                  1051357995500                       # Total gap between requests
system.mem_ctrls.readPktSize::0                     0                       # Read request sizes (log2)
system.mem_ctrls.readPktSize::1                     0                       # Read request sizes (log2)
system.mem_ctrls.readPktSize::2                     0                       # Read request sizes (log2)
system.mem_ctrls.readPktSize::3                     0                       # Read request sizes (log2)
system.mem_ctrls.readPktSize::4                     0                       # Read request sizes (log2)
system.mem_ctrls.readPktSize::5                     0                       # Read request sizes (log2)
system.mem_ctrls.readPktSize::6                613776                       # Read request sizes (log2)
system.mem_ctrls.writePktSize::0                    0                       # Write request sizes (log2)
system.mem_ctrls.writePktSize::1                    0                       # Write request sizes (log2)
system.mem_ctrls.writePktSize::2                    0                       # Write request sizes (log2)
system.mem_ctrls.writePktSize::3                    0                       # Write request sizes (log2)
system.mem_ctrls.writePktSize::4                    0                       # Write request sizes (log2)
system.mem_ctrls.writePktSize::5                    0                       # Write request sizes (log2)
system.mem_ctrls.writePktSize::6               368834                       # Write request sizes (log2)
system.mem_ctrls.rdQLenPdf::0                  604324                       # What read queue length does an incoming req see
system.mem_ctrls.rdQLenPdf::1                    7977                       # What read queue length does an incoming req see
system.mem_ctrls.rdQLenPdf::2                     427                       # What read queue length does an incoming req see
system.mem_ctrls.rdQLenPdf::3                     215                       # What read queue length does an incoming req see
system.mem_ctrls.rdQLenPdf::4                       0                       # What read queue length does an incoming req see
system.mem_ctrls.rdQLenPdf::5                       0                       # What read queue length does an incoming req see
system.mem_ctrls.rdQLenPdf::6                       0                       # What read queue length does an incoming req see
system.mem_ctrls.rdQLenPdf::7                       0                       # What read queue length does an incoming req see
system.mem_ctrls.rdQLenPdf::8                       0                       # What read queue length does an incoming req see
system.mem_ctrls.rdQLenPdf::9                       0                       # What read queue length does an incoming req see
system.mem_ctrls.rdQLenPdf::10                      0                       # What read queue length does an incoming req see
system.mem_ctrls.rdQLenPdf::11                      0                       # What read queue length does an incoming req see
system.mem_ctrls.rdQLenPdf::12                      0                       # What read queue length does an incoming req see
system.mem_ctrls.rdQLenPdf::13                      0                       # What read queue length does an incoming req see
system.mem_ctrls.rdQLenPdf::14                      0                       # What read queue length does an incoming req see
system.mem_ctrls.rdQLenPdf::15                      0                       # What read queue length does an incoming req see
system.mem_ctrls.rdQLenPdf::16                      0                       # What read queue length does an incoming req see
system.mem_ctrls.rdQLenPdf::17                      0                       # What read queue length does an incoming req see
system.mem_ctrls.rdQLenPdf::18                      0                       # What read queue length does an incoming req see
system.mem_ctrls.rdQLenPdf::19                      0                       # What read queue length does an incoming req see
system.mem_ctrls.rdQLenPdf::20                      0                       # What read queue length does an incoming req see
system.mem_ctrls.rdQLenPdf::21                      0                       # What read queue length does an incoming req see
system.mem_ctrls.rdQLenPdf::22                      0                       # What read queue length does an incoming req see
system.mem_ctrls.rdQLenPdf::23                      0                       # What read queue length does an incoming req see
system.mem_ctrls.rdQLenPdf::24                      0                       # What read queue length does an incoming req see
system.mem_ctrls.rdQLenPdf::25                      0                       # What read queue length does an incoming req see
system.mem_ctrls.rdQLenPdf::26                      0                       # What read queue length does an incoming req see
system.mem_ctrls.rdQLenPdf::27                      0                       # What read queue length does an incoming req see
system.mem_ctrls.rdQLenPdf::28                      0                       # What read queue length does an incoming req see
system.mem_ctrls.rdQLenPdf::29                      0                       # What read queue length does an incoming req see
system.mem_ctrls.rdQLenPdf::30                      0                       # What read queue length does an incoming req see
system.mem_ctrls.rdQLenPdf::31                      0                       # What read queue length does an incoming req see
system.mem_ctrls.wrQLenPdf::0                       1                       # What write queue length does an incoming req see
system.mem_ctrls.wrQLenPdf::1                       1                       # What write queue length does an incoming req see
system.mem_ctrls.wrQLenPdf::2                       1                       # What write queue length does an incoming req see
system.mem_ctrls.wrQLenPdf::3                       1                       # What write queue length does an incoming req see
system.mem_ctrls.wrQLenPdf::4                       1                       # What write queue length does an incoming req see
system.mem_ctrls.wrQLenPdf::5                       1                       # What write queue length does an incoming req see
system.mem_ctrls.wrQLenPdf::6                       1                       # What write queue length does an incoming req see
system.mem_ctrls.wrQLenPdf::7                       1                       # What write queue length does an incoming req see
system.mem_ctrls.wrQLenPdf::8                       1                       # What write queue length does an incoming req see
system.mem_ctrls.wrQLenPdf::9                       1                       # What write queue length does an incoming req see
system.mem_ctrls.wrQLenPdf::10                      1                       # What write queue length does an incoming req see
system.mem_ctrls.wrQLenPdf::11                      1                       # What write queue length does an incoming req see
system.mem_ctrls.wrQLenPdf::12                      1                       # What write queue length does an incoming req see
system.mem_ctrls.wrQLenPdf::13                      1                       # What write queue length does an incoming req see
system.mem_ctrls.wrQLenPdf::14                      1                       # What write queue length does an incoming req see
system.mem_ctrls.wrQLenPdf::15                  14137                       # What write queue length does an incoming req see
system.mem_ctrls.wrQLenPdf::16                  14741                       # What write queue length does an incoming req see
system.mem_ctrls.wrQLenPdf::17                  20932                       # What write queue length does an incoming req see
system.mem_ctrls.wrQLenPdf::18                  21287                       # What write queue length does an incoming req see
system.mem_ctrls.wrQLenPdf::19                  21305                       # What write queue length does an incoming req see
system.mem_ctrls.wrQLenPdf::20                  21181                       # What write queue length does an incoming req see
system.mem_ctrls.wrQLenPdf::21                  21137                       # What write queue length does an incoming req see
system.mem_ctrls.wrQLenPdf::22                  21128                       # What write queue length does an incoming req see
system.mem_ctrls.wrQLenPdf::23                  21148                       # What write queue length does an incoming req see
system.mem_ctrls.wrQLenPdf::24                  21161                       # What write queue length does an incoming req see
system.mem_ctrls.wrQLenPdf::25                  21244                       # What write queue length does an incoming req see
system.mem_ctrls.wrQLenPdf::26                  21285                       # What write queue length does an incoming req see
system.mem_ctrls.wrQLenPdf::27                  21635                       # What write queue length does an incoming req see
system.mem_ctrls.wrQLenPdf::28                  22045                       # What write queue length does an incoming req see
system.mem_ctrls.wrQLenPdf::29                  21109                       # What write queue length does an incoming req see
system.mem_ctrls.wrQLenPdf::30                  21098                       # What write queue length does an incoming req see
system.mem_ctrls.wrQLenPdf::31                  21097                       # What write queue length does an incoming req see
system.mem_ctrls.wrQLenPdf::32                  21095                       # What write queue length does an incoming req see
system.mem_ctrls.wrQLenPdf::33                     46                       # What write queue length does an incoming req see
system.mem_ctrls.wrQLenPdf::34                      7                       # What write queue length does an incoming req see
system.mem_ctrls.wrQLenPdf::35                      1                       # What write queue length does an incoming req see
system.mem_ctrls.wrQLenPdf::36                      0                       # What write queue length does an incoming req see
system.mem_ctrls.wrQLenPdf::37                      0                       # What write queue length does an incoming req see
system.mem_ctrls.wrQLenPdf::38                      0                       # What write queue length does an incoming req see
system.mem_ctrls.wrQLenPdf::39                      0                       # What write queue length does an incoming req see
system.mem_ctrls.wrQLenPdf::40                      0                       # What write queue length does an incoming req see
system.mem_ctrls.wrQLenPdf::41                      0                       # What write queue length does an incoming req see
system.mem_ctrls.wrQLenPdf::42                      0                       # What write queue length does an incoming req see
system.mem_ctrls.wrQLenPdf::43                      0                       # What write queue length does an incoming req see
system.mem_ctrls.wrQLenPdf::44                      0                       # What write queue length does an incoming req see
system.mem_ctrls.wrQLenPdf::45                      0                       # What write queue length does an incoming req see
system.mem_ctrls.wrQLenPdf::46                      0                       # What write queue length does an incoming req see
system.mem_ctrls.wrQLenPdf::47                      0                       # What write queue length does an incoming req see
system.mem_ctrls.wrQLenPdf::48                      0                       # What write queue length does an incoming req see
system.mem_ctrls.wrQLenPdf::49                      0                       # What write queue length does an incoming req see
system.mem_ctrls.wrQLenPdf::50                      0                       # What write queue length does an incoming req see
system.mem_ctrls.wrQLenPdf::51                      0                       # What write queue length does an incoming req see
system.mem_ctrls.wrQLenPdf::52                      0                       # What write queue length does an incoming req see
system.mem_ctrls.wrQLenPdf::53                      0                       # What write queue length does an incoming req see
system.mem_ctrls.wrQLenPdf::54                      0                       # What write queue length does an incoming req see
system.mem_ctrls.wrQLenPdf::55                      0                       # What write queue length does an incoming req see
system.mem_ctrls.wrQLenPdf::56                      0                       # What write queue length does an incoming req see
system.mem_ctrls.wrQLenPdf::57                      0                       # What write queue length does an incoming req see
system.mem_ctrls.wrQLenPdf::58                      0                       # What write queue length does an incoming req see
system.mem_ctrls.wrQLenPdf::59                      0                       # What write queue length does an incoming req see
system.mem_ctrls.wrQLenPdf::60                      0                       # What write queue length does an incoming req see
system.mem_ctrls.wrQLenPdf::61                      0                       # What write queue length does an incoming req see
system.mem_ctrls.wrQLenPdf::62                      0                       # What write queue length does an incoming req see
system.mem_ctrls.wrQLenPdf::63                      0                       # What write queue length does an incoming req see
system.mem_ctrls.bytesPerActivate::samples       536082                       # Bytes accessed per row activation
system.mem_ctrls.bytesPerActivate::mean    117.205830                       # Bytes accessed per row activation
system.mem_ctrls.bytesPerActivate::gmean    87.543730                       # Bytes accessed per row activation
system.mem_ctrls.bytesPerActivate::stdev   148.508077                       # Bytes accessed per row activation
system.mem_ctrls.bytesPerActivate::0-127       391754     73.08%     73.08% # Bytes accessed per row activation
system.mem_ctrls.bytesPerActivate::128-255        97266     18.14%     91.22% # Bytes accessed per row activation
system.mem_ctrls.bytesPerActivate::256-383        18316      3.42%     94.64% # Bytes accessed per row activation
system.mem_ctrls.bytesPerActivate::384-511         6476      1.21%     95.85% # Bytes accessed per row activation
system.mem_ctrls.bytesPerActivate::512-639        11944      2.23%     98.07% # Bytes accessed per row activation
system.mem_ctrls.bytesPerActivate::640-767          977      0.18%     98.26% # Bytes accessed per row activation
system.mem_ctrls.bytesPerActivate::768-895          769      0.14%     98.40% # Bytes accessed per row activation
system.mem_ctrls.bytesPerActivate::896-1023          464      0.09%     98.49% # Bytes accessed per row activation
system.mem_ctrls.bytesPerActivate::1024-1151         8116      1.51%    100.00% # Bytes accessed per row activation
system.mem_ctrls.bytesPerActivate::total       536082                       # Bytes accessed per row activation
system.mem_ctrls.rdPerTurnAround::samples        21095                       # Reads before turning the bus around for writes
system.mem_ctrls.rdPerTurnAround::mean      29.032662                       # Reads before turning the bus around for writes
system.mem_ctrls.rdPerTurnAround::stdev    212.590104                       # Reads before turning the bus around for writes
system.mem_ctrls.rdPerTurnAround::0-1023        21050     99.79%     99.79% # Reads before turning the bus around for writes
system.mem_ctrls.rdPerTurnAround::1024-2047           41      0.19%     99.98% # Reads before turning the bus around for writes
system.mem_ctrls.rdPerTurnAround::2048-3071            2      0.01%     99.99% # Reads before turning the bus around for writes
system.mem_ctrls.rdPerTurnAround::4096-5119            1      0.00%    100.00% # Reads before turning the bus around for writes
system.mem_ctrls.rdPerTurnAround::27648-28671            1      0.00%    100.00% # Reads before turning the bus around for writes
system.mem_ctrls.rdPerTurnAround::total         21095                       # Reads before turning the bus around for writes
system.mem_ctrls.wrPerTurnAround::samples        21095                       # Writes before turning the bus around for reads
system.mem_ctrls.wrPerTurnAround::mean      17.483100                       # Writes before turning the bus around for reads
system.mem_ctrls.wrPerTurnAround::gmean     17.450798                       # Writes before turning the bus around for reads
system.mem_ctrls.wrPerTurnAround::stdev      1.053687                       # Writes before turning the bus around for reads
system.mem_ctrls.wrPerTurnAround::16             6437     30.51%     30.51% # Writes before turning the bus around for reads
system.mem_ctrls.wrPerTurnAround::17              469      2.22%     32.74% # Writes before turning the bus around for reads
system.mem_ctrls.wrPerTurnAround::18            11938     56.59%     89.33% # Writes before turning the bus around for reads
system.mem_ctrls.wrPerTurnAround::19             2074      9.83%     99.16% # Writes before turning the bus around for reads
system.mem_ctrls.wrPerTurnAround::20              167      0.79%     99.95% # Writes before turning the bus around for reads
system.mem_ctrls.wrPerTurnAround::21                9      0.04%    100.00% # Writes before turning the bus around for reads
system.mem_ctrls.wrPerTurnAround::22                1      0.00%    100.00% # Writes before turning the bus around for reads
system.mem_ctrls.wrPerTurnAround::total         21095                       # Writes before turning the bus around for reads
system.mem_ctrls.totQLat                   8960679750                       # Total ticks spent queuing
system.mem_ctrls.totMemAccLat             20453361000                       # Total ticks spent from burst creation until serviced by the DRAM
system.mem_ctrls.totBusLat                 3064715000                       # Total ticks spent in databus transfers
system.mem_ctrls.avgQLat                     14619.11                       # Average queueing delay per DRAM burst
system.mem_ctrls.avgBusLat                    5000.00                       # Average bus latency per DRAM burst
system.mem_ctrls.avgMemAccLat                33369.11                       # Average memory access latency per DRAM burst
system.mem_ctrls.avgRdBW                        37.31                       # Average DRAM read bandwidth in MiByte/s
system.mem_ctrls.avgWrBW                        22.45                       # Average achieved write bandwidth in MiByte/s
system.mem_ctrls.avgRdBWSys                     37.36                       # Average system read bandwidth in MiByte/s
system.mem_ctrls.avgWrBWSys                     22.45                       # Average system write bandwidth in MiByte/s
system.mem_ctrls.peakBW                      12800.00                       # Theoretical peak bandwidth in MiByte/s
system.mem_ctrls.busUtil                         0.47                       # Data bus utilization in percentage
system.mem_ctrls.busUtilRead                     0.29                       # Data bus utilization in percentage for reads
system.mem_ctrls.busUtilWrite                    0.18                       # Data bus utilization in percentage for writes
system.mem_ctrls.avgRdQLen                       1.00                       # Average read queue length when enqueuing
system.mem_ctrls.avgWrQLen                      24.16                       # Average write queue length when enqueuing
system.mem_ctrls.readRowHits                   297480                       # Number of row buffer hits during reads
system.mem_ctrls.writeRowHits                  148187                       # Number of row buffer hits during writes
system.mem_ctrls.readRowHitRate                 48.53                       # Row buffer hit rate for reads
system.mem_ctrls.writeRowHitRate                40.18                       # Row buffer hit rate for writes
system.mem_ctrls.avgGap                    1069964.68                       # Average gap between requests
system.mem_ctrls.pageHitRate                    45.39                       # Row buffer hit rate, read and write combined
system.mem_ctrls_0.actEnergy               2000481840                       # Energy for activate commands per rank (pJ)
system.mem_ctrls_0.preEnergy               1091532750                       # Energy for precharge commands per rank (pJ)
system.mem_ctrls_0.readEnergy              2375443200                       # Energy for read commands per rank (pJ)
system.mem_ctrls_0.writeEnergy             1171869120                       # Energy for write commands per rank (pJ)
system.mem_ctrls_0.refreshEnergy          68671365360                       # Energy for refresh commands per rank (pJ)
system.mem_ctrls_0.actBackEnergy         204915881790                       # Energy for active background per rank (pJ)
system.mem_ctrls_0.preBackEnergy         451080448500                       # Energy for precharge background per rank (pJ)
system.mem_ctrls_0.totalEnergy           731307022560                       # Total energy per rank (pJ)
system.mem_ctrls_0.averagePower            695.565150                       # Core power per rank (mW)
system.mem_ctrls_0.memoryStateTime::IDLE 749214560250                       # Time in different power states
system.mem_ctrls_0.memoryStateTime::REF   35108060000                       # Time in different power states
system.mem_ctrls_0.memoryStateTime::PRE_PDN            0                       # Time in different power states
system.mem_ctrls_0.memoryStateTime::ACT  267062763500                       # Time in different power states
system.mem_ctrls_0.memoryStateTime::ACT_PDN            0                       # Time in different power states
system.mem_ctrls_1.actEnergy               2052298080                       # Energy for activate commands per rank (pJ)
system.mem_ctrls_1.preEnergy               1119805500                       # Energy for precharge commands per rank (pJ)
system.mem_ctrls_1.readEnergy              2405512200                       # Energy for read commands per rank (pJ)
system.mem_ctrls_1.writeEnergy             1217993760                       # Energy for write commands per rank (pJ)
system.mem_ctrls_1.refreshEnergy          68671365360                       # Energy for refresh commands per rank (pJ)
system.mem_ctrls_1.actBackEnergy         204396339330                       # Energy for active background per rank (pJ)
system.mem_ctrls_1.preBackEnergy         451536187500                       # Energy for precharge background per rank (pJ)
system.mem_ctrls_1.totalEnergy           731399501730                       # Total energy per rank (pJ)
system.mem_ctrls_1.averagePower            695.653109                       # Core power per rank (mW)
system.mem_ctrls_1.memoryStateTime::IDLE 749964717000                       # Time in different power states
system.mem_ctrls_1.memoryStateTime::REF   35108060000                       # Time in different power states
system.mem_ctrls_1.memoryStateTime::PRE_PDN            0                       # Time in different power states
system.mem_ctrls_1.memoryStateTime::ACT  266312606750                       # Time in different power states
system.mem_ctrls_1.memoryStateTime::ACT_PDN            0                       # Time in different power states
system.cpu_voltage_domain.voltage                   1                       # Voltage in Volts
system.cpu_clk_domain.clock                       500                       # Clock period in ticks
system.cpu.apic_clk_domain.clock                 8000                       # Clock period in ticks
system.cpu.workload.num_syscalls                   86                       # Number of system calls
system.cpu.numCycles                       2102781323                       # number of cpu cycles simulated
system.cpu.numWorkItemsStarted                      0                       # number of work items this cpu started
system.cpu.numWorkItemsCompleted                    0                       # number of work items this cpu completed
system.cpu.committedInsts                   500000000                       # Number of instructions committed
system.cpu.committedOps                     730450481                       # Number of ops (including micro ops) committed
system.cpu.num_int_alu_accesses             729688887                       # Number of integer alu accesses
system.cpu.num_fp_alu_accesses                    761                       # Number of float alu accesses
system.cpu.num_func_calls                     1453959                       # number of times a function call or return occured
system.cpu.num_conditional_control_insts     31770494                       # number of instructions that are conditional controls
system.cpu.num_int_insts                    729688887                       # number of integer instructions
system.cpu.num_fp_insts                           761                       # number of float instructions
system.cpu.num_int_register_reads          1698743312                       # number of times the integer registers were read
system.cpu.num_int_register_writes          621892930                       # number of times the integer registers were written
system.cpu.num_fp_register_reads                 1183                       # number of times the floating registers were read
system.cpu.num_fp_register_writes                 497                       # number of times the floating registers were written
system.cpu.num_cc_register_reads            180840590                       # number of times the CC registers were read
system.cpu.num_cc_register_writes           276245123                       # number of times the CC registers were written
system.cpu.num_mem_refs                     295985437                       # number of memory refs
system.cpu.num_load_insts                   225946734                       # Number of load instructions
system.cpu.num_store_insts                   70038703                       # Number of store instructions
system.cpu.num_idle_cycles                          0                       # Number of idle cycles
system.cpu.num_busy_cycles                 2102781323                       # Number of busy cycles
system.cpu.not_idle_fraction                        1                       # Percentage of non-idle cycles
system.cpu.idle_fraction                            0                       # Percentage of idle cycles
system.cpu.Branches                          37843290                       # Number of branches fetched
system.cpu.op_class::No_OpClass                 94739      0.01%      0.01% # Class of executed instruction
system.cpu.op_class::IntAlu                 434349056     59.46%     59.48% # Class of executed instruction
system.cpu.op_class::IntMult                    20662      0.00%     59.48% # Class of executed instruction
system.cpu.op_class::IntDiv                       119      0.00%     59.48% # Class of executed instruction
system.cpu.op_class::FloatAdd                     468      0.00%     59.48% # Class of executed instruction
system.cpu.op_class::FloatCmp                       0      0.00%     59.48% # Class of executed instruction
system.cpu.op_class::FloatCvt                       0      0.00%     59.48% # Class of executed instruction
system.cpu.op_class::FloatMult                      0      0.00%     59.48% # Class of executed instruction
system.cpu.op_class::FloatDiv                       0      0.00%     59.48% # Class of executed instruction
system.cpu.op_class::FloatSqrt                      0      0.00%     59.48% # Class of executed instruction
system.cpu.op_class::SimdAdd                        0      0.00%     59.48% # Class of executed instruction
system.cpu.op_class::SimdAddAcc                     0      0.00%     59.48% # Class of executed instruction
system.cpu.op_class::SimdAlu                        0      0.00%     59.48% # Class of executed instruction
system.cpu.op_class::SimdCmp                        0      0.00%     59.48% # Class of executed instruction
system.cpu.op_class::SimdCvt                        0      0.00%     59.48% # Class of executed instruction
system.cpu.op_class::SimdMisc                       0      0.00%     59.48% # Class of executed instruction
system.cpu.op_class::SimdMult                       0      0.00%     59.48% # Class of executed instruction
system.cpu.op_class::SimdMultAcc                    0      0.00%     59.48% # Class of executed instruction
system.cpu.op_class::SimdShift                      0      0.00%     59.48% # Class of executed instruction
system.cpu.op_class::SimdShiftAcc                   0      0.00%     59.48% # Class of executed instruction
system.cpu.op_class::SimdSqrt                       0      0.00%     59.48% # Class of executed instruction
system.cpu.op_class::SimdFloatAdd                   0      0.00%     59.48% # Class of executed instruction
system.cpu.op_class::SimdFloatAlu                   0      0.00%     59.48% # Class of executed instruction
system.cpu.op_class::SimdFloatCmp                   0      0.00%     59.48% # Class of executed instruction
system.cpu.op_class::SimdFloatCvt                   0      0.00%     59.48% # Class of executed instruction
system.cpu.op_class::SimdFloatDiv                   0      0.00%     59.48% # Class of executed instruction
system.cpu.op_class::SimdFloatMisc                  0      0.00%     59.48% # Class of executed instruction
system.cpu.op_class::SimdFloatMult                  0      0.00%     59.48% # Class of executed instruction
system.cpu.op_class::SimdFloatMultAcc               0      0.00%     59.48% # Class of executed instruction
system.cpu.op_class::SimdFloatSqrt                  0      0.00%     59.48% # Class of executed instruction
system.cpu.op_class::MemRead                225946734     30.93%     90.41% # Class of executed instruction
system.cpu.op_class::MemWrite                70038703      9.59%    100.00% # Class of executed instruction
system.cpu.op_class::IprAccess                      0      0.00%    100.00% # Class of executed instruction
system.cpu.op_class::InstPrefetch                   0      0.00%    100.00% # Class of executed instruction
system.cpu.op_class::total                  730450481                       # Class of executed instruction
system.cpu.dcache.tags.replacements           2042531                       # number of replacements
system.cpu.dcache.tags.tagsinuse          2042.156268                       # Cycle average of tags in use
system.cpu.dcache.tags.total_refs           293940866                       # Total number of references to valid blocks.
system.cpu.dcache.tags.sampled_refs           2044579                       # Sample count of references to valid blocks.
system.cpu.dcache.tags.avg_refs            143.765962                       # Average number of references to valid blocks.
system.cpu.dcache.tags.warmup_cycle        3522699500                       # Cycle when the warmup percentage was hit.
system.cpu.dcache.tags.occ_blocks::cpu.data  2042.156268                       # Average occupied blocks per requestor
system.cpu.dcache.tags.occ_percent::cpu.data     0.997147                       # Average percentage of cache occupancy
system.cpu.dcache.tags.occ_percent::total     0.997147                       # Average percentage of cache occupancy
system.cpu.dcache.tags.occ_task_id_blocks::1024         2048                       # Occupied blocks per task id
system.cpu.dcache.tags.age_task_id_blocks_1024::1            2                       # Occupied blocks per task id
system.cpu.dcache.tags.age_task_id_blocks_1024::2           16                       # Occupied blocks per task id
system.cpu.dcache.tags.age_task_id_blocks_1024::3         1422                       # Occupied blocks per task id
system.cpu.dcache.tags.age_task_id_blocks_1024::4          608                       # Occupied blocks per task id
system.cpu.dcache.tags.occ_task_id_percent::1024            1                       # Percentage of cache occupancy per task id
system.cpu.dcache.tags.tag_accesses         594015469                       # Number of tag accesses
system.cpu.dcache.tags.data_accesses        594015469                       # Number of data accesses
system.cpu.dcache.ReadReq_hits::cpu.data    224491166                       # number of ReadReq hits
system.cpu.dcache.ReadReq_hits::total       224491166                       # number of ReadReq hits
system.cpu.dcache.WriteReq_hits::cpu.data     69449700                       # number of WriteReq hits
system.cpu.dcache.WriteReq_hits::total       69449700                       # number of WriteReq hits
system.cpu.dcache.demand_hits::cpu.data     293940866                       # number of demand (read+write) hits
system.cpu.dcache.demand_hits::total        293940866                       # number of demand (read+write) hits
system.cpu.dcache.overall_hits::cpu.data    293940866                       # number of overall hits
system.cpu.dcache.overall_hits::total       293940866                       # number of overall hits
system.cpu.dcache.ReadReq_misses::cpu.data      1439192                       # number of ReadReq misses
system.cpu.dcache.ReadReq_misses::total       1439192                       # number of ReadReq misses
system.cpu.dcache.WriteReq_misses::cpu.data       589003                       # number of WriteReq misses
system.cpu.dcache.WriteReq_misses::total       589003                       # number of WriteReq misses
system.cpu.dcache.SoftPFReq_misses::cpu.data        16384                       # number of SoftPFReq misses
system.cpu.dcache.SoftPFReq_misses::total        16384                       # number of SoftPFReq misses
system.cpu.dcache.demand_misses::cpu.data      2028195                       # number of demand (read+write) misses
system.cpu.dcache.demand_misses::total        2028195                       # number of demand (read+write) misses
system.cpu.dcache.overall_misses::cpu.data      2044579                       # number of overall misses
system.cpu.dcache.overall_misses::total       2044579                       # number of overall misses
system.cpu.dcache.ReadReq_miss_latency::cpu.data  39841559000                       # number of ReadReq miss cycles
system.cpu.dcache.ReadReq_miss_latency::total  39841559000                       # number of ReadReq miss cycles
system.cpu.dcache.WriteReq_miss_latency::cpu.data  29999504000                       # number of WriteReq miss cycles
system.cpu.dcache.WriteReq_miss_latency::total  29999504000                       # number of WriteReq miss cycles
system.cpu.dcache.demand_miss_latency::cpu.data  69841063000                       # number of demand (read+write) miss cycles
system.cpu.dcache.demand_miss_latency::total  69841063000                       # number of demand (read+write) miss cycles
system.cpu.dcache.overall_miss_latency::cpu.data  69841063000                       # number of overall miss cycles
system.cpu.dcache.overall_miss_latency::total  69841063000                       # number of overall miss cycles
system.cpu.dcache.ReadReq_accesses::cpu.data    225930358                       # number of ReadReq accesses(hits+misses)
system.cpu.dcache.ReadReq_accesses::total    225930358                       # number of ReadReq accesses(hits+misses)
system.cpu.dcache.WriteReq_accesses::cpu.data     70038703                       # number of WriteReq accesses(hits+misses)
system.cpu.dcache.WriteReq_accesses::total     70038703                       # number of WriteReq accesses(hits+misses)
system.cpu.dcache.SoftPFReq_accesses::cpu.data        16384                       # number of SoftPFReq accesses(hits+misses)
system.cpu.dcache.SoftPFReq_accesses::total        16384                       # number of SoftPFReq accesses(hits+misses)
system.cpu.dcache.demand_accesses::cpu.data    295969061                       # number of demand (read+write) accesses
system.cpu.dcache.demand_accesses::total    295969061                       # number of demand (read+write) accesses
system.cpu.dcache.overall_accesses::cpu.data    295985445                       # number of overall (read+write) accesses
system.cpu.dcache.overall_accesses::total    295985445                       # number of overall (read+write) accesses
system.cpu.dcache.ReadReq_miss_rate::cpu.data     0.006370                       # miss rate for ReadReq accesses
system.cpu.dcache.ReadReq_miss_rate::total     0.006370                       # miss rate for ReadReq accesses
system.cpu.dcache.WriteReq_miss_rate::cpu.data     0.008410                       # miss rate for WriteReq accesses
system.cpu.dcache.WriteReq_miss_rate::total     0.008410                       # miss rate for WriteReq accesses
system.cpu.dcache.SoftPFReq_miss_rate::cpu.data            1                       # miss rate for SoftPFReq accesses
system.cpu.dcache.SoftPFReq_miss_rate::total            1                       # miss rate for SoftPFReq accesses
system.cpu.dcache.demand_miss_rate::cpu.data     0.006853                       # miss rate for demand accesses
system.cpu.dcache.demand_miss_rate::total     0.006853                       # miss rate for demand accesses
system.cpu.dcache.overall_miss_rate::cpu.data     0.006908                       # miss rate for overall accesses
system.cpu.dcache.overall_miss_rate::total     0.006908                       # miss rate for overall accesses
system.cpu.dcache.ReadReq_avg_miss_latency::cpu.data 27683.282703                       # average ReadReq miss latency
system.cpu.dcache.ReadReq_avg_miss_latency::total 27683.282703                       # average ReadReq miss latency
system.cpu.dcache.WriteReq_avg_miss_latency::cpu.data 50932.684553                       # average WriteReq miss latency
system.cpu.dcache.WriteReq_avg_miss_latency::total 50932.684553                       # average WriteReq miss latency
system.cpu.dcache.demand_avg_miss_latency::cpu.data 34435.082919                       # average overall miss latency
system.cpu.dcache.demand_avg_miss_latency::total 34435.082919                       # average overall miss latency
system.cpu.dcache.overall_avg_miss_latency::cpu.data 34159.141320                       # average overall miss latency
system.cpu.dcache.overall_avg_miss_latency::total 34159.141320                       # average overall miss latency
system.cpu.dcache.blocked_cycles::no_mshrs       247207                       # number of cycles access was blocked
system.cpu.dcache.blocked_cycles::no_targets            0                       # number of cycles access was blocked
system.cpu.dcache.blocked::no_mshrs              5200                       # number of cycles access was blocked
system.cpu.dcache.blocked::no_targets               0                       # number of cycles access was blocked
system.cpu.dcache.avg_blocked_cycles::no_mshrs    47.539808                       # average number of cycles each access was blocked
system.cpu.dcache.avg_blocked_cycles::no_targets          nan                       # average number of cycles each access was blocked
system.cpu.dcache.fast_writes                       0                       # number of fast writes performed
system.cpu.dcache.cache_copies                      0                       # number of cache copies performed
system.cpu.dcache.writebacks::writebacks       956576                       # number of writebacks
system.cpu.dcache.writebacks::total            956576                       # number of writebacks
system.cpu.dcache.ReadReq_mshr_misses::cpu.data      1439192                       # number of ReadReq MSHR misses
system.cpu.dcache.ReadReq_mshr_misses::total      1439192                       # number of ReadReq MSHR misses
system.cpu.dcache.WriteReq_mshr_misses::cpu.data       589003                       # number of WriteReq MSHR misses
system.cpu.dcache.WriteReq_mshr_misses::total       589003                       # number of WriteReq MSHR misses
system.cpu.dcache.SoftPFReq_mshr_misses::cpu.data        16384                       # number of SoftPFReq MSHR misses
system.cpu.dcache.SoftPFReq_mshr_misses::total        16384                       # number of SoftPFReq MSHR misses
system.cpu.dcache.demand_mshr_misses::cpu.data      2028195                       # number of demand (read+write) MSHR misses
system.cpu.dcache.demand_mshr_misses::total      2028195                       # number of demand (read+write) MSHR misses
system.cpu.dcache.overall_mshr_misses::cpu.data      2044579                       # number of overall MSHR misses
system.cpu.dcache.overall_mshr_misses::total      2044579                       # number of overall MSHR misses
system.cpu.dcache.ReadReq_mshr_miss_latency::cpu.data  38402367000                       # number of ReadReq MSHR miss cycles
system.cpu.dcache.ReadReq_mshr_miss_latency::total  38402367000                       # number of ReadReq MSHR miss cycles
system.cpu.dcache.WriteReq_mshr_miss_latency::cpu.data  29410501000                       # number of WriteReq MSHR miss cycles
system.cpu.dcache.WriteReq_mshr_miss_latency::total  29410501000                       # number of WriteReq MSHR miss cycles
system.cpu.dcache.SoftPFReq_mshr_miss_latency::cpu.data   1299710495                       # number of SoftPFReq MSHR miss cycles
system.cpu.dcache.SoftPFReq_mshr_miss_latency::total   1299710495                       # number of SoftPFReq MSHR miss cycles
system.cpu.dcache.demand_mshr_miss_latency::cpu.data  67812868000                       # number of demand (read+write) MSHR miss cycles
system.cpu.dcache.demand_mshr_miss_latency::total  67812868000                       # number of demand (read+write) MSHR miss cycles
system.cpu.dcache.overall_mshr_miss_latency::cpu.data  69112578495                       # number of overall MSHR miss cycles
system.cpu.dcache.overall_mshr_miss_latency::total  69112578495                       # number of overall MSHR miss cycles
system.cpu.dcache.ReadReq_mshr_miss_rate::cpu.data     0.006370                       # mshr miss rate for ReadReq accesses
system.cpu.dcache.ReadReq_mshr_miss_rate::total     0.006370                       # mshr miss rate for ReadReq accesses
system.cpu.dcache.WriteReq_mshr_miss_rate::cpu.data     0.008410                       # mshr miss rate for WriteReq accesses
system.cpu.dcache.WriteReq_mshr_miss_rate::total     0.008410                       # mshr miss rate for WriteReq accesses
system.cpu.dcache.SoftPFReq_mshr_miss_rate::cpu.data            1                       # mshr miss rate for SoftPFReq accesses
system.cpu.dcache.SoftPFReq_mshr_miss_rate::total            1                       # mshr miss rate for SoftPFReq accesses
system.cpu.dcache.demand_mshr_miss_rate::cpu.data     0.006853                       # mshr miss rate for demand accesses
system.cpu.dcache.demand_mshr_miss_rate::total     0.006853                       # mshr miss rate for demand accesses
system.cpu.dcache.overall_mshr_miss_rate::cpu.data     0.006908                       # mshr miss rate for overall accesses
system.cpu.dcache.overall_mshr_miss_rate::total     0.006908                       # mshr miss rate for overall accesses
system.cpu.dcache.ReadReq_avg_mshr_miss_latency::cpu.data 26683.282703                       # average ReadReq mshr miss latency
system.cpu.dcache.ReadReq_avg_mshr_miss_latency::total 26683.282703                       # average ReadReq mshr miss latency
system.cpu.dcache.WriteReq_avg_mshr_miss_latency::cpu.data 49932.684553                       # average WriteReq mshr miss latency
system.cpu.dcache.WriteReq_avg_mshr_miss_latency::total 49932.684553                       # average WriteReq mshr miss latency
system.cpu.dcache.SoftPFReq_avg_mshr_miss_latency::cpu.data 79328.033142                       # average SoftPFReq mshr miss latency
system.cpu.dcache.SoftPFReq_avg_mshr_miss_latency::total 79328.033142                       # average SoftPFReq mshr miss latency
system.cpu.dcache.demand_avg_mshr_miss_latency::cpu.data 33435.082919                       # average overall mshr miss latency
system.cpu.dcache.demand_avg_mshr_miss_latency::total 33435.082919                       # average overall mshr miss latency
system.cpu.dcache.overall_avg_mshr_miss_latency::cpu.data 33802.840827                       # average overall mshr miss latency
system.cpu.dcache.overall_avg_mshr_miss_latency::total 33802.840827                       # average overall mshr miss latency
system.cpu.dcache.no_allocate_misses                0                       # Number of misses that were no-allocate
system.cpu.dtb_walker_cache.tags.replacements            0                       # number of replacements
system.cpu.dtb_walker_cache.tags.tagsinuse            0                       # Cycle average of tags in use
system.cpu.dtb_walker_cache.tags.total_refs            0                       # Total number of references to valid blocks.
system.cpu.dtb_walker_cache.tags.sampled_refs            0                       # Sample count of references to valid blocks.
system.cpu.dtb_walker_cache.tags.avg_refs          nan                       # Average number of references to valid blocks.
system.cpu.dtb_walker_cache.tags.warmup_cycle            0                       # Cycle when the warmup percentage was hit.
system.cpu.dtb_walker_cache.tags.tag_accesses            0                       # Number of tag accesses
system.cpu.dtb_walker_cache.tags.data_accesses            0                       # Number of data accesses
system.cpu.dtb_walker_cache.blocked_cycles::no_mshrs            0                       # number of cycles access was blocked
system.cpu.dtb_walker_cache.blocked_cycles::no_targets            0                       # number of cycles access was blocked
system.cpu.dtb_walker_cache.blocked::no_mshrs            0                       # number of cycles access was blocked
system.cpu.dtb_walker_cache.blocked::no_targets            0                       # number of cycles access was blocked
system.cpu.dtb_walker_cache.avg_blocked_cycles::no_mshrs          nan                       # average number of cycles each access was blocked
system.cpu.dtb_walker_cache.avg_blocked_cycles::no_targets          nan                       # average number of cycles each access was blocked
system.cpu.dtb_walker_cache.fast_writes             0                       # number of fast writes performed
system.cpu.dtb_walker_cache.cache_copies            0                       # number of cache copies performed
system.cpu.dtb_walker_cache.no_allocate_misses            0                       # Number of misses that were no-allocate
system.cpu.icache.tags.replacements                45                       # number of replacements
system.cpu.icache.tags.tagsinuse           670.958620                       # Cycle average of tags in use
system.cpu.icache.tags.total_refs           687396859                       # Total number of references to valid blocks.
system.cpu.icache.tags.sampled_refs              1001                       # Sample count of references to valid blocks.
system.cpu.icache.tags.avg_refs          686710.148851                       # Average number of references to valid blocks.
system.cpu.icache.tags.warmup_cycle                 0                       # Cycle when the warmup percentage was hit.
system.cpu.icache.tags.occ_blocks::cpu.inst   670.958620                       # Average occupied blocks per requestor
system.cpu.icache.tags.occ_percent::cpu.inst     0.327617                       # Average percentage of cache occupancy
system.cpu.icache.tags.occ_percent::total     0.327617                       # Average percentage of cache occupancy
system.cpu.icache.tags.occ_task_id_blocks::1024          956                       # Occupied blocks per task id
system.cpu.icache.tags.age_task_id_blocks_1024::1            7                       # Occupied blocks per task id
system.cpu.icache.tags.age_task_id_blocks_1024::3           25                       # Occupied blocks per task id
system.cpu.icache.tags.age_task_id_blocks_1024::4          924                       # Occupied blocks per task id
system.cpu.icache.tags.occ_task_id_percent::1024     0.466797                       # Percentage of cache occupancy per task id
system.cpu.icache.tags.tag_accesses        1374796721                       # Number of tag accesses
system.cpu.icache.tags.data_accesses       1374796721                       # Number of data accesses
system.cpu.icache.ReadReq_hits::cpu.inst    687396859                       # number of ReadReq hits
system.cpu.icache.ReadReq_hits::total       687396859                       # number of ReadReq hits
system.cpu.icache.demand_hits::cpu.inst     687396859                       # number of demand (read+write) hits
system.cpu.icache.demand_hits::total        687396859                       # number of demand (read+write) hits
system.cpu.icache.overall_hits::cpu.inst    687396859                       # number of overall hits
system.cpu.icache.overall_hits::total       687396859                       # number of overall hits
system.cpu.icache.ReadReq_misses::cpu.inst         1001                       # number of ReadReq misses
system.cpu.icache.ReadReq_misses::total          1001                       # number of ReadReq misses
system.cpu.icache.demand_misses::cpu.inst         1001                       # number of demand (read+write) misses
system.cpu.icache.demand_misses::total           1001                       # number of demand (read+write) misses
system.cpu.icache.overall_misses::cpu.inst         1001                       # number of overall misses
system.cpu.icache.overall_misses::total          1001                       # number of overall misses
system.cpu.icache.ReadReq_miss_latency::cpu.inst     79447000                       # number of ReadReq miss cycles
system.cpu.icache.ReadReq_miss_latency::total     79447000                       # number of ReadReq miss cycles
system.cpu.icache.demand_miss_latency::cpu.inst     79447000                       # number of demand (read+write) miss cycles
system.cpu.icache.demand_miss_latency::total     79447000                       # number of demand (read+write) miss cycles
system.cpu.icache.overall_miss_latency::cpu.inst     79447000                       # number of overall miss cycles
system.cpu.icache.overall_miss_latency::total     79447000                       # number of overall miss cycles
system.cpu.icache.ReadReq_accesses::cpu.inst    687397860                       # number of ReadReq accesses(hits+misses)
system.cpu.icache.ReadReq_accesses::total    687397860                       # number of ReadReq accesses(hits+misses)
system.cpu.icache.demand_accesses::cpu.inst    687397860                       # number of demand (read+write) accesses
system.cpu.icache.demand_accesses::total    687397860                       # number of demand (read+write) accesses
system.cpu.icache.overall_accesses::cpu.inst    687397860                       # number of overall (read+write) accesses
system.cpu.icache.overall_accesses::total    687397860                       # number of overall (read+write) accesses
system.cpu.icache.ReadReq_miss_rate::cpu.inst     0.000001                       # miss rate for ReadReq accesses
system.cpu.icache.ReadReq_miss_rate::total     0.000001                       # miss rate for ReadReq accesses
system.cpu.icache.demand_miss_rate::cpu.inst     0.000001                       # miss rate for demand accesses
system.cpu.icache.demand_miss_rate::total     0.000001                       # miss rate for demand accesses
system.cpu.icache.overall_miss_rate::cpu.inst     0.000001                       # miss rate for overall accesses
system.cpu.icache.overall_miss_rate::total     0.000001                       # miss rate for overall accesses
system.cpu.icache.ReadReq_avg_miss_latency::cpu.inst 79367.632368                       # average ReadReq miss latency
system.cpu.icache.ReadReq_avg_miss_latency::total 79367.632368                       # average ReadReq miss latency
system.cpu.icache.demand_avg_miss_latency::cpu.inst 79367.632368                       # average overall miss latency
system.cpu.icache.demand_avg_miss_latency::total 79367.632368                       # average overall miss latency
system.cpu.icache.overall_avg_miss_latency::cpu.inst 79367.632368                       # average overall miss latency
system.cpu.icache.overall_avg_miss_latency::total 79367.632368                       # average overall miss latency
system.cpu.icache.blocked_cycles::no_mshrs            0                       # number of cycles access was blocked
system.cpu.icache.blocked_cycles::no_targets            0                       # number of cycles access was blocked
system.cpu.icache.blocked::no_mshrs                 0                       # number of cycles access was blocked
system.cpu.icache.blocked::no_targets               0                       # number of cycles access was blocked
system.cpu.icache.avg_blocked_cycles::no_mshrs          nan                       # average number of cycles each access was blocked
system.cpu.icache.avg_blocked_cycles::no_targets          nan                       # average number of cycles each access was blocked
system.cpu.icache.fast_writes                       0                       # number of fast writes performed
system.cpu.icache.cache_copies                      0                       # number of cache copies performed
system.cpu.icache.writebacks::writebacks           45                       # number of writebacks
system.cpu.icache.writebacks::total                45                       # number of writebacks
system.cpu.icache.ReadReq_mshr_misses::cpu.inst         1001                       # number of ReadReq MSHR misses
system.cpu.icache.ReadReq_mshr_misses::total         1001                       # number of ReadReq MSHR misses
system.cpu.icache.demand_mshr_misses::cpu.inst         1001                       # number of demand (read+write) MSHR misses
system.cpu.icache.demand_mshr_misses::total         1001                       # number of demand (read+write) MSHR misses
system.cpu.icache.overall_mshr_misses::cpu.inst         1001                       # number of overall MSHR misses
system.cpu.icache.overall_mshr_misses::total         1001                       # number of overall MSHR misses
system.cpu.icache.ReadReq_mshr_miss_latency::cpu.inst     78446000                       # number of ReadReq MSHR miss cycles
system.cpu.icache.ReadReq_mshr_miss_latency::total     78446000                       # number of ReadReq MSHR miss cycles
system.cpu.icache.demand_mshr_miss_latency::cpu.inst     78446000                       # number of demand (read+write) MSHR miss cycles
system.cpu.icache.demand_mshr_miss_latency::total     78446000                       # number of demand (read+write) MSHR miss cycles
system.cpu.icache.overall_mshr_miss_latency::cpu.inst     78446000                       # number of overall MSHR miss cycles
system.cpu.icache.overall_mshr_miss_latency::total     78446000                       # number of overall MSHR miss cycles
system.cpu.icache.ReadReq_mshr_miss_rate::cpu.inst     0.000001                       # mshr miss rate for ReadReq accesses
system.cpu.icache.ReadReq_mshr_miss_rate::total     0.000001                       # mshr miss rate for ReadReq accesses
system.cpu.icache.demand_mshr_miss_rate::cpu.inst     0.000001                       # mshr miss rate for demand accesses
system.cpu.icache.demand_mshr_miss_rate::total     0.000001                       # mshr miss rate for demand accesses
system.cpu.icache.overall_mshr_miss_rate::cpu.inst     0.000001                       # mshr miss rate for overall accesses
system.cpu.icache.overall_mshr_miss_rate::total     0.000001                       # mshr miss rate for overall accesses
system.cpu.icache.ReadReq_avg_mshr_miss_latency::cpu.inst 78367.632368                       # average ReadReq mshr miss latency
system.cpu.icache.ReadReq_avg_mshr_miss_latency::total 78367.632368                       # average ReadReq mshr miss latency
system.cpu.icache.demand_avg_mshr_miss_latency::cpu.inst 78367.632368                       # average overall mshr miss latency
system.cpu.icache.demand_avg_mshr_miss_latency::total 78367.632368                       # average overall mshr miss latency
system.cpu.icache.overall_avg_mshr_miss_latency::cpu.inst 78367.632368                       # average overall mshr miss latency
system.cpu.icache.overall_avg_mshr_miss_latency::total 78367.632368                       # average overall mshr miss latency
system.cpu.icache.no_allocate_misses                0                       # Number of misses that were no-allocate
system.cpu.itb_walker_cache.tags.replacements            0                       # number of replacements
system.cpu.itb_walker_cache.tags.tagsinuse            0                       # Cycle average of tags in use
system.cpu.itb_walker_cache.tags.total_refs            0                       # Total number of references to valid blocks.
system.cpu.itb_walker_cache.tags.sampled_refs            0                       # Sample count of references to valid blocks.
system.cpu.itb_walker_cache.tags.avg_refs          nan                       # Average number of references to valid blocks.
system.cpu.itb_walker_cache.tags.warmup_cycle            0                       # Cycle when the warmup percentage was hit.
system.cpu.itb_walker_cache.tags.tag_accesses            0                       # Number of tag accesses
system.cpu.itb_walker_cache.tags.data_accesses            0                       # Number of data accesses
system.cpu.itb_walker_cache.blocked_cycles::no_mshrs            0                       # number of cycles access was blocked
system.cpu.itb_walker_cache.blocked_cycles::no_targets            0                       # number of cycles access was blocked
system.cpu.itb_walker_cache.blocked::no_mshrs            0                       # number of cycles access was blocked
system.cpu.itb_walker_cache.blocked::no_targets            0                       # number of cycles access was blocked
system.cpu.itb_walker_cache.avg_blocked_cycles::no_mshrs          nan                       # average number of cycles each access was blocked
system.cpu.itb_walker_cache.avg_blocked_cycles::no_targets          nan                       # average number of cycles each access was blocked
system.cpu.itb_walker_cache.fast_writes             0                       # number of fast writes performed
system.cpu.itb_walker_cache.cache_copies            0                       # number of cache copies performed
system.cpu.itb_walker_cache.no_allocate_misses            0                       # Number of misses that were no-allocate
system.l2.tags.replacements                    597065                       # number of replacements
system.l2.tags.tagsinuse                 16322.588756                       # Cycle average of tags in use
system.l2.tags.total_refs                     2885544                       # Total number of references to valid blocks.
system.l2.tags.sampled_refs                    613389                       # Sample count of references to valid blocks.
system.l2.tags.avg_refs                      4.704264                       # Average number of references to valid blocks.
system.l2.tags.warmup_cycle                3949910000                       # Cycle when the warmup percentage was hit.
system.l2.tags.occ_blocks::writebacks     6122.157938                       # Average occupied blocks per requestor
system.l2.tags.occ_blocks::cpu.inst         47.109226                       # Average occupied blocks per requestor
system.l2.tags.occ_blocks::cpu.data      10153.321592                       # Average occupied blocks per requestor
system.l2.tags.occ_percent::writebacks       0.373667                       # Average percentage of cache occupancy
system.l2.tags.occ_percent::cpu.inst         0.002875                       # Average percentage of cache occupancy
system.l2.tags.occ_percent::cpu.data         0.619710                       # Average percentage of cache occupancy
system.l2.tags.occ_percent::total            0.996252                       # Average percentage of cache occupancy
system.l2.tags.occ_task_id_blocks::1024         16324                       # Occupied blocks per task id
system.l2.tags.age_task_id_blocks_1024::1            9                       # Occupied blocks per task id
system.l2.tags.age_task_id_blocks_1024::2           10                       # Occupied blocks per task id
system.l2.tags.age_task_id_blocks_1024::3           38                       # Occupied blocks per task id
system.l2.tags.age_task_id_blocks_1024::4        16267                       # Occupied blocks per task id
system.l2.tags.occ_task_id_percent::1024     0.996338                       # Percentage of cache occupancy per task id
system.l2.tags.tag_accesses                8373743832                       # Number of tag accesses
system.l2.tags.data_accesses               8373743832                       # Number of data accesses
system.l2.WritebackDirty_hits::writebacks       956576                       # number of WritebackDirty hits
system.l2.WritebackDirty_hits::total           956576                       # number of WritebackDirty hits
system.l2.WritebackClean_hits::writebacks           45                       # number of WritebackClean hits
system.l2.WritebackClean_hits::total               45                       # number of WritebackClean hits
system.l2.ReadExReq_hits::cpu.data             287362                       # number of ReadExReq hits
system.l2.ReadExReq_hits::total                287362                       # number of ReadExReq hits
system.l2.ReadCleanReq_hits::cpu.inst               1                       # number of ReadCleanReq hits
system.l2.ReadCleanReq_hits::total                  1                       # number of ReadCleanReq hits
system.l2.ReadSharedReq_hits::cpu.data        1144441                       # number of ReadSharedReq hits
system.l2.ReadSharedReq_hits::total           1144441                       # number of ReadSharedReq hits
system.l2.demand_hits::cpu.inst                     1                       # number of demand (read+write) hits
system.l2.demand_hits::cpu.data               1431803                       # number of demand (read+write) hits
system.l2.demand_hits::total                  1431804                       # number of demand (read+write) hits
system.l2.overall_hits::cpu.inst                    1                       # number of overall hits
system.l2.overall_hits::cpu.data              1431803                       # number of overall hits
system.l2.overall_hits::total                 1431804                       # number of overall hits
system.l2.ReadExReq_misses::cpu.data           301641                       # number of ReadExReq misses
system.l2.ReadExReq_misses::total              301641                       # number of ReadExReq misses
system.l2.ReadCleanReq_misses::cpu.inst          1000                       # number of ReadCleanReq misses
system.l2.ReadCleanReq_misses::total             1000                       # number of ReadCleanReq misses
system.l2.ReadSharedReq_misses::cpu.data       311135                       # number of ReadSharedReq misses
system.l2.ReadSharedReq_misses::total          311135                       # number of ReadSharedReq misses
system.l2.demand_misses::cpu.inst                1000                       # number of demand (read+write) misses
system.l2.demand_misses::cpu.data              612776                       # number of demand (read+write) misses
system.l2.demand_misses::total                 613776                       # number of demand (read+write) misses
system.l2.overall_misses::cpu.inst               1000                       # number of overall misses
system.l2.overall_misses::cpu.data             612776                       # number of overall misses
system.l2.overall_misses::total                613776                       # number of overall misses
system.l2.ReadExReq_miss_latency::cpu.data  25509694500                       # number of ReadExReq miss cycles
system.l2.ReadExReq_miss_latency::total   25509694500                       # number of ReadExReq miss cycles
system.l2.ReadCleanReq_miss_latency::cpu.inst     76932500                       # number of ReadCleanReq miss cycles
system.l2.ReadCleanReq_miss_latency::total     76932500                       # number of ReadCleanReq miss cycles
system.l2.ReadSharedReq_miss_latency::cpu.data  25502024500                       # number of ReadSharedReq miss cycles
system.l2.ReadSharedReq_miss_latency::total  25502024500                       # number of ReadSharedReq miss cycles
system.l2.demand_miss_latency::cpu.inst      76932500                       # number of demand (read+write) miss cycles
system.l2.demand_miss_latency::cpu.data   51011719000                       # number of demand (read+write) miss cycles
system.l2.demand_miss_latency::total      51088651500                       # number of demand (read+write) miss cycles
system.l2.overall_miss_latency::cpu.inst     76932500                       # number of overall miss cycles
system.l2.overall_miss_latency::cpu.data  51011719000                       # number of overall miss cycles
system.l2.overall_miss_latency::total     51088651500                       # number of overall miss cycles
system.l2.WritebackDirty_accesses::writebacks       956576                       # number of WritebackDirty accesses(hits+misses)
system.l2.WritebackDirty_accesses::total       956576                       # number of WritebackDirty accesses(hits+misses)
system.l2.WritebackClean_accesses::writebacks           45                       # number of WritebackClean accesses(hits+misses)
system.l2.WritebackClean_accesses::total           45                       # number of WritebackClean accesses(hits+misses)
system.l2.ReadExReq_accesses::cpu.data         589003                       # number of ReadExReq accesses(hits+misses)
system.l2.ReadExReq_accesses::total            589003                       # number of ReadExReq accesses(hits+misses)
system.l2.ReadCleanReq_accesses::cpu.inst         1001                       # number of ReadCleanReq accesses(hits+misses)
system.l2.ReadCleanReq_accesses::total           1001                       # number of ReadCleanReq accesses(hits+misses)
system.l2.ReadSharedReq_accesses::cpu.data      1455576                       # number of ReadSharedReq accesses(hits+misses)
system.l2.ReadSharedReq_accesses::total       1455576                       # number of ReadSharedReq accesses(hits+misses)
system.l2.demand_accesses::cpu.inst              1001                       # number of demand (read+write) accesses
system.l2.demand_accesses::cpu.data           2044579                       # number of demand (read+write) accesses
system.l2.demand_accesses::total              2045580                       # number of demand (read+write) accesses
system.l2.overall_accesses::cpu.inst             1001                       # number of overall (read+write) accesses
system.l2.overall_accesses::cpu.data          2044579                       # number of overall (read+write) accesses
system.l2.overall_accesses::total             2045580                       # number of overall (read+write) accesses
system.l2.ReadExReq_miss_rate::cpu.data      0.512121                       # miss rate for ReadExReq accesses
system.l2.ReadExReq_miss_rate::total         0.512121                       # miss rate for ReadExReq accesses
system.l2.ReadCleanReq_miss_rate::cpu.inst     0.999001                       # miss rate for ReadCleanReq accesses
system.l2.ReadCleanReq_miss_rate::total      0.999001                       # miss rate for ReadCleanReq accesses
system.l2.ReadSharedReq_miss_rate::cpu.data     0.213754                       # miss rate for ReadSharedReq accesses
system.l2.ReadSharedReq_miss_rate::total     0.213754                       # miss rate for ReadSharedReq accesses
system.l2.demand_miss_rate::cpu.inst         0.999001                       # miss rate for demand accesses
system.l2.demand_miss_rate::cpu.data         0.299708                       # miss rate for demand accesses
system.l2.demand_miss_rate::total            0.300050                       # miss rate for demand accesses
system.l2.overall_miss_rate::cpu.inst        0.999001                       # miss rate for overall accesses
system.l2.overall_miss_rate::cpu.data        0.299708                       # miss rate for overall accesses
system.l2.overall_miss_rate::total           0.300050                       # miss rate for overall accesses
system.l2.ReadExReq_avg_miss_latency::cpu.data 84569.718639                       # average ReadExReq miss latency
system.l2.ReadExReq_avg_miss_latency::total 84569.718639                       # average ReadExReq miss latency
system.l2.ReadCleanReq_avg_miss_latency::cpu.inst 76932.500000                       # average ReadCleanReq miss latency
system.l2.ReadCleanReq_avg_miss_latency::total 76932.500000                       # average ReadCleanReq miss latency
system.l2.ReadSharedReq_avg_miss_latency::cpu.data 81964.499333                       # average ReadSharedReq miss latency
system.l2.ReadSharedReq_avg_miss_latency::total 81964.499333                       # average ReadSharedReq miss latency
system.l2.demand_avg_miss_latency::cpu.inst 76932.500000                       # average overall miss latency
system.l2.demand_avg_miss_latency::cpu.data 83246.927099                       # average overall miss latency
system.l2.demand_avg_miss_latency::total 83236.639263                       # average overall miss latency
system.l2.overall_avg_miss_latency::cpu.inst 76932.500000                       # average overall miss latency
system.l2.overall_avg_miss_latency::cpu.data 83246.927099                       # average overall miss latency
system.l2.overall_avg_miss_latency::total 83236.639263                       # average overall miss latency
system.l2.blocked_cycles::no_mshrs                  0                       # number of cycles access was blocked
system.l2.blocked_cycles::no_targets                0                       # number of cycles access was blocked
system.l2.blocked::no_mshrs                         0                       # number of cycles access was blocked
system.l2.blocked::no_targets                       0                       # number of cycles access was blocked
system.l2.avg_blocked_cycles::no_mshrs            nan                       # average number of cycles each access was blocked
system.l2.avg_blocked_cycles::no_targets          nan                       # average number of cycles each access was blocked
system.l2.fast_writes                               0                       # number of fast writes performed
system.l2.cache_copies                              0                       # number of cache copies performed
system.l2.writebacks::writebacks               368834                       # number of writebacks
system.l2.writebacks::total                    368834                       # number of writebacks
system.l2.CleanEvict_mshr_misses::writebacks           22                       # number of CleanEvict MSHR misses
system.l2.CleanEvict_mshr_misses::total            22                       # number of CleanEvict MSHR misses
system.l2.ReadExReq_mshr_misses::cpu.data       301641                       # number of ReadExReq MSHR misses
system.l2.ReadExReq_mshr_misses::total         301641                       # number of ReadExReq MSHR misses
system.l2.ReadCleanReq_mshr_misses::cpu.inst         1000                       # number of ReadCleanReq MSHR misses
system.l2.ReadCleanReq_mshr_misses::total         1000                       # number of ReadCleanReq MSHR misses
system.l2.ReadSharedReq_mshr_misses::cpu.data       311135                       # number of ReadSharedReq MSHR misses
system.l2.ReadSharedReq_mshr_misses::total       311135                       # number of ReadSharedReq MSHR misses
system.l2.demand_mshr_misses::cpu.inst           1000                       # number of demand (read+write) MSHR misses
system.l2.demand_mshr_misses::cpu.data         612776                       # number of demand (read+write) MSHR misses
system.l2.demand_mshr_misses::total            613776                       # number of demand (read+write) MSHR misses
system.l2.overall_mshr_misses::cpu.inst          1000                       # number of overall MSHR misses
system.l2.overall_mshr_misses::cpu.data        612776                       # number of overall MSHR misses
system.l2.overall_mshr_misses::total           613776                       # number of overall MSHR misses
system.l2.ReadExReq_mshr_miss_latency::cpu.data  22493284500                       # number of ReadExReq MSHR miss cycles
system.l2.ReadExReq_mshr_miss_latency::total  22493284500                       # number of ReadExReq MSHR miss cycles
system.l2.ReadCleanReq_mshr_miss_latency::cpu.inst     66932500                       # number of ReadCleanReq MSHR miss cycles
system.l2.ReadCleanReq_mshr_miss_latency::total     66932500                       # number of ReadCleanReq MSHR miss cycles
system.l2.ReadSharedReq_mshr_miss_latency::cpu.data  22390674500                       # number of ReadSharedReq MSHR miss cycles
system.l2.ReadSharedReq_mshr_miss_latency::total  22390674500                       # number of ReadSharedReq MSHR miss cycles
system.l2.demand_mshr_miss_latency::cpu.inst     66932500                       # number of demand (read+write) MSHR miss cycles
system.l2.demand_mshr_miss_latency::cpu.data  44883959000                       # number of demand (read+write) MSHR miss cycles
system.l2.demand_mshr_miss_latency::total  44950891500                       # number of demand (read+write) MSHR miss cycles
system.l2.overall_mshr_miss_latency::cpu.inst     66932500                       # number of overall MSHR miss cycles
system.l2.overall_mshr_miss_latency::cpu.data  44883959000                       # number of overall MSHR miss cycles
system.l2.overall_mshr_miss_latency::total  44950891500                       # number of overall MSHR miss cycles
system.l2.CleanEvict_mshr_miss_rate::writebacks          inf                       # mshr miss rate for CleanEvict accesses
system.l2.CleanEvict_mshr_miss_rate::total          inf                       # mshr miss rate for CleanEvict accesses
system.l2.ReadExReq_mshr_miss_rate::cpu.data     0.512121                       # mshr miss rate for ReadExReq accesses
system.l2.ReadExReq_mshr_miss_rate::total     0.512121                       # mshr miss rate for ReadExReq accesses
system.l2.ReadCleanReq_mshr_miss_rate::cpu.inst     0.999001                       # mshr miss rate for ReadCleanReq accesses
system.l2.ReadCleanReq_mshr_miss_rate::total     0.999001                       # mshr miss rate for ReadCleanReq accesses
system.l2.ReadSharedReq_mshr_miss_rate::cpu.data     0.213754                       # mshr miss rate for ReadSharedReq accesses
system.l2.ReadSharedReq_mshr_miss_rate::total     0.213754                       # mshr miss rate for ReadSharedReq accesses
system.l2.demand_mshr_miss_rate::cpu.inst     0.999001                       # mshr miss rate for demand accesses
system.l2.demand_mshr_miss_rate::cpu.data     0.299708                       # mshr miss rate for demand accesses
system.l2.demand_mshr_miss_rate::total       0.300050                       # mshr miss rate for demand accesses
system.l2.overall_mshr_miss_rate::cpu.inst     0.999001                       # mshr miss rate for overall accesses
system.l2.overall_mshr_miss_rate::cpu.data     0.299708                       # mshr miss rate for overall accesses
system.l2.overall_mshr_miss_rate::total      0.300050                       # mshr miss rate for overall accesses
system.l2.ReadExReq_avg_mshr_miss_latency::cpu.data 74569.718639                       # average ReadExReq mshr miss latency
system.l2.ReadExReq_avg_mshr_miss_latency::total 74569.718639                       # average ReadExReq mshr miss latency
system.l2.ReadCleanReq_avg_mshr_miss_latency::cpu.inst 66932.500000                       # average ReadCleanReq mshr miss latency
system.l2.ReadCleanReq_avg_mshr_miss_latency::total 66932.500000                       # average ReadCleanReq mshr miss latency
system.l2.ReadSharedReq_avg_mshr_miss_latency::cpu.data 71964.499333                       # average ReadSharedReq mshr miss latency
system.l2.ReadSharedReq_avg_mshr_miss_latency::total 71964.499333                       # average ReadSharedReq mshr miss latency
system.l2.demand_avg_mshr_miss_latency::cpu.inst 66932.500000                       # average overall mshr miss latency
system.l2.demand_avg_mshr_miss_latency::cpu.data 73246.927099                       # average overall mshr miss latency
system.l2.demand_avg_mshr_miss_latency::total 73236.639263                       # average overall mshr miss latency
system.l2.overall_avg_mshr_miss_latency::cpu.inst 66932.500000                       # average overall mshr miss latency
system.l2.overall_avg_mshr_miss_latency::cpu.data 73246.927099                       # average overall mshr miss latency
system.l2.overall_avg_mshr_miss_latency::total 73236.639263                       # average overall mshr miss latency
system.l2.no_allocate_misses                        0                       # Number of misses that were no-allocate
system.membus.trans_dist::ReadResp             312135                       # Transaction distribution
system.membus.trans_dist::WritebackDirty       368834                       # Transaction distribution
system.membus.trans_dist::CleanEvict           227495                       # Transaction distribution
system.membus.trans_dist::ReadExReq            301641                       # Transaction distribution
system.membus.trans_dist::ReadExResp           301641                       # Transaction distribution
system.membus.trans_dist::ReadSharedReq        312135                       # Transaction distribution
system.membus.pkt_count_system.l2.mem_side::system.mem_ctrls.port      1823881                       # Packet count per connected master and slave (bytes)
system.membus.pkt_count_system.l2.mem_side::total      1823881                       # Packet count per connected master and slave (bytes)
system.membus.pkt_count::total                1823881                       # Packet count per connected master and slave (bytes)
system.membus.pkt_size_system.l2.mem_side::system.mem_ctrls.port     62887040                       # Cumulative packet size per connected master and slave (bytes)
system.membus.pkt_size_system.l2.mem_side::total     62887040                       # Cumulative packet size per connected master and slave (bytes)
system.membus.pkt_size::total                62887040                       # Cumulative packet size per connected master and slave (bytes)
system.membus.snoops                                0                       # Total snoops (count)
system.membus.snoop_fanout::samples           1210105                       # Request fanout histogram
system.membus.snoop_fanout::mean                    0                       # Request fanout histogram
system.membus.snoop_fanout::stdev                   0                       # Request fanout histogram
system.membus.snoop_fanout::underflows              0      0.00%      0.00% # Request fanout histogram
system.membus.snoop_fanout::0                 1210105    100.00%    100.00% # Request fanout histogram
system.membus.snoop_fanout::1                       0      0.00%    100.00% # Request fanout histogram
system.membus.snoop_fanout::overflows               0      0.00%    100.00% # Request fanout histogram
system.membus.snoop_fanout::min_value               0                       # Request fanout histogram
system.membus.snoop_fanout::max_value               0                       # Request fanout histogram
system.membus.snoop_fanout::total             1210105                       # Request fanout histogram
system.membus.reqLayer2.occupancy          2693431000                       # Layer occupancy (ticks)
system.membus.reqLayer2.utilization               0.3                       # Layer utilization (%)
system.membus.respLayer1.occupancy         3319147500                       # Layer occupancy (ticks)
system.membus.respLayer1.utilization              0.3                       # Layer utilization (%)
system.tol2bus.snoop_filter.tot_requests      4088156                       # Total number of requests made to the snoop filter.
system.tol2bus.snoop_filter.hit_single_requests      2042576                       # Number of requests hitting in the snoop filter with a single holder of the requested data.
system.tol2bus.snoop_filter.hit_multi_requests            1                       # Number of requests hitting in the snoop filter with multiple (>1) holders of the requested data.
system.tol2bus.snoop_filter.tot_snoops            758                       # Total number of snoops made to the snoop filter.
system.tol2bus.snoop_filter.hit_single_snoops          758                       # Number of snoops hitting in the snoop filter with a single holder of the requested data.
system.tol2bus.snoop_filter.hit_multi_snoops            0                       # Number of snoops hitting in the snoop filter with multiple (>1) holders of the requested data.
system.tol2bus.trans_dist::ReadResp           1456577                       # Transaction distribution
system.tol2bus.trans_dist::WritebackDirty      1325410                       # Transaction distribution
system.tol2bus.trans_dist::WritebackClean           45                       # Transaction distribution
system.tol2bus.trans_dist::CleanEvict         1314185                       # Transaction distribution
system.tol2bus.trans_dist::ReadExReq           589003                       # Transaction distribution
system.tol2bus.trans_dist::ReadExResp          589003                       # Transaction distribution
system.tol2bus.trans_dist::ReadCleanReq          1001                       # Transaction distribution
system.tol2bus.trans_dist::ReadSharedReq      1455576                       # Transaction distribution
system.tol2bus.pkt_count_system.cpu.icache.mem_side::system.l2.cpu_side         2047                       # Packet count per connected master and slave (bytes)
system.tol2bus.pkt_count_system.cpu.dcache.mem_side::system.l2.cpu_side      6131688                       # Packet count per connected master and slave (bytes)
system.tol2bus.pkt_count::total               6133735                       # Packet count per connected master and slave (bytes)
system.tol2bus.pkt_size_system.cpu.icache.mem_side::system.l2.cpu_side        66944                       # Cumulative packet size per connected master and slave (bytes)
system.tol2bus.pkt_size_system.cpu.dcache.mem_side::system.l2.cpu_side    192073920                       # Cumulative packet size per connected master and slave (bytes)
system.tol2bus.pkt_size::total              192140864                       # Cumulative packet size per connected master and slave (bytes)
system.tol2bus.snoops                          597065                       # Total snoops (count)
system.tol2bus.snoop_fanout::samples          2642645                       # Request fanout histogram
system.tol2bus.snoop_fanout::mean            0.000287                       # Request fanout histogram
system.tol2bus.snoop_fanout::stdev           0.016945                       # Request fanout histogram
system.tol2bus.snoop_fanout::underflows             0      0.00%      0.00% # Request fanout histogram
system.tol2bus.snoop_fanout::0                2641886     99.97%     99.97% # Request fanout histogram
system.tol2bus.snoop_fanout::1                    759      0.03%    100.00% # Request fanout histogram
system.tol2bus.snoop_fanout::2                      0      0.00%    100.00% # Request fanout histogram
system.tol2bus.snoop_fanout::3                      0      0.00%    100.00% # Request fanout histogram
system.tol2bus.snoop_fanout::4                      0      0.00%    100.00% # Request fanout histogram
system.tol2bus.snoop_fanout::overflows              0      0.00%    100.00% # Request fanout histogram
system.tol2bus.snoop_fanout::min_value              0                       # Request fanout histogram
system.tol2bus.snoop_fanout::max_value              1                       # Request fanout histogram
system.tol2bus.snoop_fanout::total            2642645                       # Request fanout histogram
system.tol2bus.reqLayer0.occupancy         3000699000                       # Layer occupancy (ticks)
system.tol2bus.reqLayer0.utilization              0.3                       # Layer utilization (%)
system.tol2bus.respLayer0.occupancy           1501500                       # Layer occupancy (ticks)
system.tol2bus.respLayer0.utilization             0.0                       # Layer utilization (%)
system.tol2bus.respLayer1.occupancy        3066868500                       # Layer occupancy (ticks)
system.tol2bus.respLayer1.utilization             0.3                       # Layer utilization (%)

---------- End Simulation Statistics   ----------
