
---------- Begin Simulation Statistics ----------
sim_seconds                                  1.748355                       # Number of seconds simulated
sim_ticks                                1748354736500                       # Number of ticks simulated
final_tick                               1748354736500                       # Number of ticks from beginning of simulation (restored from checkpoints and never reset)
sim_freq                                 1000000000000                       # Frequency of simulated ticks
host_inst_rate                                  79764                       # Simulator instruction rate (inst/s)
host_op_rate                                   139796                       # Simulator op (including micro ops) rate (op/s)
host_tick_rate                              278910303                       # Simulator tick rate (ticks/s)
host_mem_usage                                 824860                       # Number of bytes of host memory used
host_seconds                                  6268.52                       # Real time elapsed on the host
sim_insts                                   500000000                       # Number of instructions simulated
sim_ops                                     876313791                       # Number of ops (including micro ops) simulated
system.voltage_domain.voltage                       1                       # Voltage in Volts
system.clk_domain.clock                          1000                       # Clock period in ticks
system.mem_ctrls.bytes_read::cpu.inst           43456                       # Number of bytes read from this memory
system.mem_ctrls.bytes_read::cpu.data       495886336                       # Number of bytes read from this memory
system.mem_ctrls.bytes_read::total          495929792                       # Number of bytes read from this memory
system.mem_ctrls.bytes_inst_read::cpu.inst        43456                       # Number of instructions bytes read from this memory
system.mem_ctrls.bytes_inst_read::total         43456                       # Number of instructions bytes read from this memory
system.mem_ctrls.bytes_written::writebacks     78895360                       # Number of bytes written to this memory
system.mem_ctrls.bytes_written::total        78895360                       # Number of bytes written to this memory
system.mem_ctrls.num_reads::cpu.inst              679                       # Number of read requests responded to by this memory
system.mem_ctrls.num_reads::cpu.data          7748224                       # Number of read requests responded to by this memory
system.mem_ctrls.num_reads::total             7748903                       # Number of read requests responded to by this memory
system.mem_ctrls.num_writes::writebacks       1232740                       # Number of write requests responded to by this memory
system.mem_ctrls.num_writes::total            1232740                       # Number of write requests responded to by this memory
system.mem_ctrls.bw_read::cpu.inst              24855                       # Total read bandwidth from this memory (bytes/s)
system.mem_ctrls.bw_read::cpu.data          283630276                       # Total read bandwidth from this memory (bytes/s)
system.mem_ctrls.bw_read::total             283655131                       # Total read bandwidth from this memory (bytes/s)
system.mem_ctrls.bw_inst_read::cpu.inst         24855                       # Instruction read bandwidth from this memory (bytes/s)
system.mem_ctrls.bw_inst_read::total            24855                       # Instruction read bandwidth from this memory (bytes/s)
system.mem_ctrls.bw_write::writebacks        45125488                       # Write bandwidth from this memory (bytes/s)
system.mem_ctrls.bw_write::total             45125488                       # Write bandwidth from this memory (bytes/s)
system.mem_ctrls.bw_total::writebacks        45125488                       # Total bandwidth to/from this memory (bytes/s)
system.mem_ctrls.bw_total::cpu.inst             24855                       # Total bandwidth to/from this memory (bytes/s)
system.mem_ctrls.bw_total::cpu.data         283630276                       # Total bandwidth to/from this memory (bytes/s)
system.mem_ctrls.bw_total::total            328780619                       # Total bandwidth to/from this memory (bytes/s)
system.mem_ctrls.readReqs                     7748903                       # Number of read requests accepted
system.mem_ctrls.writeReqs                    1232740                       # Number of write requests accepted
system.mem_ctrls.readBursts                   7748903                       # Number of DRAM read bursts, including those serviced by the write queue
system.mem_ctrls.writeBursts                  1232740                       # Number of DRAM write bursts, including those merged in the write queue
system.mem_ctrls.bytesReadDRAM              493963072                       # Total number of bytes read from DRAM
system.mem_ctrls.bytesReadWrQ                 1966720                       # Total number of bytes read from write queue
system.mem_ctrls.bytesWritten                78799552                       # Total number of bytes written to DRAM
system.mem_ctrls.bytesReadSys               495929792                       # Total read bytes from the system interface side
system.mem_ctrls.bytesWrittenSys             78895360                       # Total written bytes from the system interface side
system.mem_ctrls.servicedByWrQ                  30730                       # Number of DRAM read bursts serviced by the write queue
system.mem_ctrls.mergedWrBursts                  1473                       # Number of DRAM write bursts merged with an existing one
system.mem_ctrls.neitherReadNorWriteReqs      6507268                       # Number of requests that are neither read nor write
system.mem_ctrls.perBankRdBursts::0            491845                       # Per bank write bursts
system.mem_ctrls.perBankRdBursts::1            476164                       # Per bank write bursts
system.mem_ctrls.perBankRdBursts::2            473267                       # Per bank write bursts
system.mem_ctrls.perBankRdBursts::3            497965                       # Per bank write bursts
system.mem_ctrls.perBankRdBursts::4            470236                       # Per bank write bursts
system.mem_ctrls.perBankRdBursts::5            471339                       # Per bank write bursts
system.mem_ctrls.perBankRdBursts::6            476734                       # Per bank write bursts
system.mem_ctrls.perBankRdBursts::7            470151                       # Per bank write bursts
system.mem_ctrls.perBankRdBursts::8            473739                       # Per bank write bursts
system.mem_ctrls.perBankRdBursts::9            474345                       # Per bank write bursts
system.mem_ctrls.perBankRdBursts::10           483123                       # Per bank write bursts
system.mem_ctrls.perBankRdBursts::11           486284                       # Per bank write bursts
system.mem_ctrls.perBankRdBursts::12           488608                       # Per bank write bursts
system.mem_ctrls.perBankRdBursts::13           496810                       # Per bank write bursts
system.mem_ctrls.perBankRdBursts::14           496297                       # Per bank write bursts
system.mem_ctrls.perBankRdBursts::15           491266                       # Per bank write bursts
system.mem_ctrls.perBankWrBursts::0             77658                       # Per bank write bursts
system.mem_ctrls.perBankWrBursts::1             77944                       # Per bank write bursts
system.mem_ctrls.perBankWrBursts::2             77130                       # Per bank write bursts
system.mem_ctrls.perBankWrBursts::3             84602                       # Per bank write bursts
system.mem_ctrls.perBankWrBursts::4             77923                       # Per bank write bursts
system.mem_ctrls.perBankWrBursts::5             73172                       # Per bank write bursts
system.mem_ctrls.perBankWrBursts::6             81152                       # Per bank write bursts
system.mem_ctrls.perBankWrBursts::7             72428                       # Per bank write bursts
system.mem_ctrls.perBankWrBursts::8             73306                       # Per bank write bursts
system.mem_ctrls.perBankWrBursts::9             72181                       # Per bank write bursts
system.mem_ctrls.perBankWrBursts::10            72951                       # Per bank write bursts
system.mem_ctrls.perBankWrBursts::11            77035                       # Per bank write bursts
system.mem_ctrls.perBankWrBursts::12            78062                       # Per bank write bursts
system.mem_ctrls.perBankWrBursts::13            78704                       # Per bank write bursts
system.mem_ctrls.perBankWrBursts::14            78517                       # Per bank write bursts
system.mem_ctrls.perBankWrBursts::15            78478                       # Per bank write bursts
system.mem_ctrls.numRdRetry                         0                       # Number of times read queue was full causing retry
system.mem_ctrls.numWrRetry                         0                       # Number of times write queue was full causing retry
system.mem_ctrls.totGap                  1748339910500                       # Total gap between requests
system.mem_ctrls.readPktSize::0                     0                       # Read request sizes (log2)
system.mem_ctrls.readPktSize::1                     0                       # Read request sizes (log2)
system.mem_ctrls.readPktSize::2                     0                       # Read request sizes (log2)
system.mem_ctrls.readPktSize::3                     0                       # Read request sizes (log2)
system.mem_ctrls.readPktSize::4                     0                       # Read request sizes (log2)
system.mem_ctrls.readPktSize::5                     0                       # Read request sizes (log2)
system.mem_ctrls.readPktSize::6               7748903                       # Read request sizes (log2)
system.mem_ctrls.writePktSize::0                    0                       # Write request sizes (log2)
system.mem_ctrls.writePktSize::1                    0                       # Write request sizes (log2)
system.mem_ctrls.writePktSize::2                    0                       # Write request sizes (log2)
system.mem_ctrls.writePktSize::3                    0                       # Write request sizes (log2)
system.mem_ctrls.writePktSize::4                    0                       # Write request sizes (log2)
system.mem_ctrls.writePktSize::5                    0                       # Write request sizes (log2)
system.mem_ctrls.writePktSize::6              1232740                       # Write request sizes (log2)
system.mem_ctrls.rdQLenPdf::0                 7718173                       # What read queue length does an incoming req see
system.mem_ctrls.rdQLenPdf::1                       0                       # What read queue length does an incoming req see
system.mem_ctrls.rdQLenPdf::2                       0                       # What read queue length does an incoming req see
system.mem_ctrls.rdQLenPdf::3                       0                       # What read queue length does an incoming req see
system.mem_ctrls.rdQLenPdf::4                       0                       # What read queue length does an incoming req see
system.mem_ctrls.rdQLenPdf::5                       0                       # What read queue length does an incoming req see
system.mem_ctrls.rdQLenPdf::6                       0                       # What read queue length does an incoming req see
system.mem_ctrls.rdQLenPdf::7                       0                       # What read queue length does an incoming req see
system.mem_ctrls.rdQLenPdf::8                       0                       # What read queue length does an incoming req see
system.mem_ctrls.rdQLenPdf::9                       0                       # What read queue length does an incoming req see
system.mem_ctrls.rdQLenPdf::10                      0                       # What read queue length does an incoming req see
system.mem_ctrls.rdQLenPdf::11                      0                       # What read queue length does an incoming req see
system.mem_ctrls.rdQLenPdf::12                      0                       # What read queue length does an incoming req see
system.mem_ctrls.rdQLenPdf::13                      0                       # What read queue length does an incoming req see
system.mem_ctrls.rdQLenPdf::14                      0                       # What read queue length does an incoming req see
system.mem_ctrls.rdQLenPdf::15                      0                       # What read queue length does an incoming req see
system.mem_ctrls.rdQLenPdf::16                      0                       # What read queue length does an incoming req see
system.mem_ctrls.rdQLenPdf::17                      0                       # What read queue length does an incoming req see
system.mem_ctrls.rdQLenPdf::18                      0                       # What read queue length does an incoming req see
system.mem_ctrls.rdQLenPdf::19                      0                       # What read queue length does an incoming req see
system.mem_ctrls.rdQLenPdf::20                      0                       # What read queue length does an incoming req see
system.mem_ctrls.rdQLenPdf::21                      0                       # What read queue length does an incoming req see
system.mem_ctrls.rdQLenPdf::22                      0                       # What read queue length does an incoming req see
system.mem_ctrls.rdQLenPdf::23                      0                       # What read queue length does an incoming req see
system.mem_ctrls.rdQLenPdf::24                      0                       # What read queue length does an incoming req see
system.mem_ctrls.rdQLenPdf::25                      0                       # What read queue length does an incoming req see
system.mem_ctrls.rdQLenPdf::26                      0                       # What read queue length does an incoming req see
system.mem_ctrls.rdQLenPdf::27                      0                       # What read queue length does an incoming req see
system.mem_ctrls.rdQLenPdf::28                      0                       # What read queue length does an incoming req see
system.mem_ctrls.rdQLenPdf::29                      0                       # What read queue length does an incoming req see
system.mem_ctrls.rdQLenPdf::30                      0                       # What read queue length does an incoming req see
system.mem_ctrls.rdQLenPdf::31                      0                       # What read queue length does an incoming req see
system.mem_ctrls.wrQLenPdf::0                       1                       # What write queue length does an incoming req see
system.mem_ctrls.wrQLenPdf::1                       1                       # What write queue length does an incoming req see
system.mem_ctrls.wrQLenPdf::2                       1                       # What write queue length does an incoming req see
system.mem_ctrls.wrQLenPdf::3                       1                       # What write queue length does an incoming req see
system.mem_ctrls.wrQLenPdf::4                       1                       # What write queue length does an incoming req see
system.mem_ctrls.wrQLenPdf::5                       1                       # What write queue length does an incoming req see
system.mem_ctrls.wrQLenPdf::6                       1                       # What write queue length does an incoming req see
system.mem_ctrls.wrQLenPdf::7                       1                       # What write queue length does an incoming req see
system.mem_ctrls.wrQLenPdf::8                       1                       # What write queue length does an incoming req see
system.mem_ctrls.wrQLenPdf::9                       1                       # What write queue length does an incoming req see
system.mem_ctrls.wrQLenPdf::10                      1                       # What write queue length does an incoming req see
system.mem_ctrls.wrQLenPdf::11                      1                       # What write queue length does an incoming req see
system.mem_ctrls.wrQLenPdf::12                      1                       # What write queue length does an incoming req see
system.mem_ctrls.wrQLenPdf::13                      1                       # What write queue length does an incoming req see
system.mem_ctrls.wrQLenPdf::14                      1                       # What write queue length does an incoming req see
system.mem_ctrls.wrQLenPdf::15                  26232                       # What write queue length does an incoming req see
system.mem_ctrls.wrQLenPdf::16                  27431                       # What write queue length does an incoming req see
system.mem_ctrls.wrQLenPdf::17                  73332                       # What write queue length does an incoming req see
system.mem_ctrls.wrQLenPdf::18                  73614                       # What write queue length does an incoming req see
system.mem_ctrls.wrQLenPdf::19                  73581                       # What write queue length does an incoming req see
system.mem_ctrls.wrQLenPdf::20                  73576                       # What write queue length does an incoming req see
system.mem_ctrls.wrQLenPdf::21                  73575                       # What write queue length does an incoming req see
system.mem_ctrls.wrQLenPdf::22                  73578                       # What write queue length does an incoming req see
system.mem_ctrls.wrQLenPdf::23                  73576                       # What write queue length does an incoming req see
system.mem_ctrls.wrQLenPdf::24                  73583                       # What write queue length does an incoming req see
system.mem_ctrls.wrQLenPdf::25                  73644                       # What write queue length does an incoming req see
system.mem_ctrls.wrQLenPdf::26                  73605                       # What write queue length does an incoming req see
system.mem_ctrls.wrQLenPdf::27                  73786                       # What write queue length does an incoming req see
system.mem_ctrls.wrQLenPdf::28                  73776                       # What write queue length does an incoming req see
system.mem_ctrls.wrQLenPdf::29                  73620                       # What write queue length does an incoming req see
system.mem_ctrls.wrQLenPdf::30                  73597                       # What write queue length does an incoming req see
system.mem_ctrls.wrQLenPdf::31                  73573                       # What write queue length does an incoming req see
system.mem_ctrls.wrQLenPdf::32                  73569                       # What write queue length does an incoming req see
system.mem_ctrls.wrQLenPdf::33                      4                       # What write queue length does an incoming req see
system.mem_ctrls.wrQLenPdf::34                      0                       # What write queue length does an incoming req see
system.mem_ctrls.wrQLenPdf::35                      0                       # What write queue length does an incoming req see
system.mem_ctrls.wrQLenPdf::36                      0                       # What write queue length does an incoming req see
system.mem_ctrls.wrQLenPdf::37                      0                       # What write queue length does an incoming req see
system.mem_ctrls.wrQLenPdf::38                      0                       # What write queue length does an incoming req see
system.mem_ctrls.wrQLenPdf::39                      0                       # What write queue length does an incoming req see
system.mem_ctrls.wrQLenPdf::40                      0                       # What write queue length does an incoming req see
system.mem_ctrls.wrQLenPdf::41                      0                       # What write queue length does an incoming req see
system.mem_ctrls.wrQLenPdf::42                      0                       # What write queue length does an incoming req see
system.mem_ctrls.wrQLenPdf::43                      0                       # What write queue length does an incoming req see
system.mem_ctrls.wrQLenPdf::44                      0                       # What write queue length does an incoming req see
system.mem_ctrls.wrQLenPdf::45                      0                       # What write queue length does an incoming req see
system.mem_ctrls.wrQLenPdf::46                      0                       # What write queue length does an incoming req see
system.mem_ctrls.wrQLenPdf::47                      0                       # What write queue length does an incoming req see
system.mem_ctrls.wrQLenPdf::48                      0                       # What write queue length does an incoming req see
system.mem_ctrls.wrQLenPdf::49                      0                       # What write queue length does an incoming req see
system.mem_ctrls.wrQLenPdf::50                      0                       # What write queue length does an incoming req see
system.mem_ctrls.wrQLenPdf::51                      0                       # What write queue length does an incoming req see
system.mem_ctrls.wrQLenPdf::52                      0                       # What write queue length does an incoming req see
system.mem_ctrls.wrQLenPdf::53                      0                       # What write queue length does an incoming req see
system.mem_ctrls.wrQLenPdf::54                      0                       # What write queue length does an incoming req see
system.mem_ctrls.wrQLenPdf::55                      0                       # What write queue length does an incoming req see
system.mem_ctrls.wrQLenPdf::56                      0                       # What write queue length does an incoming req see
system.mem_ctrls.wrQLenPdf::57                      0                       # What write queue length does an incoming req see
system.mem_ctrls.wrQLenPdf::58                      0                       # What write queue length does an incoming req see
system.mem_ctrls.wrQLenPdf::59                      0                       # What write queue length does an incoming req see
system.mem_ctrls.wrQLenPdf::60                      0                       # What write queue length does an incoming req see
system.mem_ctrls.wrQLenPdf::61                      0                       # What write queue length does an incoming req see
system.mem_ctrls.wrQLenPdf::62                      0                       # What write queue length does an incoming req see
system.mem_ctrls.wrQLenPdf::63                      0                       # What write queue length does an incoming req see
system.mem_ctrls.bytesPerActivate::samples      6744143                       # Bytes accessed per row activation
system.mem_ctrls.bytesPerActivate::mean     84.927414                       # Bytes accessed per row activation
system.mem_ctrls.bytesPerActivate::gmean    71.728825                       # Bytes accessed per row activation
system.mem_ctrls.bytesPerActivate::stdev   107.120913                       # Bytes accessed per row activation
system.mem_ctrls.bytesPerActivate::0-127      6065386     89.94%     89.94% # Bytes accessed per row activation
system.mem_ctrls.bytesPerActivate::128-255       500489      7.42%     97.36% # Bytes accessed per row activation
system.mem_ctrls.bytesPerActivate::256-383        49510      0.73%     98.09% # Bytes accessed per row activation
system.mem_ctrls.bytesPerActivate::384-511        21061      0.31%     98.40% # Bytes accessed per row activation
system.mem_ctrls.bytesPerActivate::512-639        16482      0.24%     98.65% # Bytes accessed per row activation
system.mem_ctrls.bytesPerActivate::640-767        14631      0.22%     98.86% # Bytes accessed per row activation
system.mem_ctrls.bytesPerActivate::768-895        14602      0.22%     99.08% # Bytes accessed per row activation
system.mem_ctrls.bytesPerActivate::896-1023         9768      0.14%     99.23% # Bytes accessed per row activation
system.mem_ctrls.bytesPerActivate::1024-1151        52214      0.77%    100.00% # Bytes accessed per row activation
system.mem_ctrls.bytesPerActivate::total      6744143                       # Bytes accessed per row activation
system.mem_ctrls.rdPerTurnAround::samples        73569                       # Reads before turning the bus around for writes
system.mem_ctrls.rdPerTurnAround::mean     104.910016                       # Reads before turning the bus around for writes
system.mem_ctrls.rdPerTurnAround::gmean     53.624283                       # Reads before turning the bus around for writes
system.mem_ctrls.rdPerTurnAround::stdev    157.978245                       # Reads before turning the bus around for writes
system.mem_ctrls.rdPerTurnAround::0-255         63543     86.37%     86.37% # Reads before turning the bus around for writes
system.mem_ctrls.rdPerTurnAround::256-511         7645     10.39%     96.76% # Reads before turning the bus around for writes
system.mem_ctrls.rdPerTurnAround::512-767         1885      2.56%     99.33% # Reads before turning the bus around for writes
system.mem_ctrls.rdPerTurnAround::768-1023          395      0.54%     99.86% # Reads before turning the bus around for writes
system.mem_ctrls.rdPerTurnAround::1024-1279           67      0.09%     99.95% # Reads before turning the bus around for writes
system.mem_ctrls.rdPerTurnAround::1280-1535           21      0.03%     99.98% # Reads before turning the bus around for writes
system.mem_ctrls.rdPerTurnAround::1536-1791            6      0.01%     99.99% # Reads before turning the bus around for writes
system.mem_ctrls.rdPerTurnAround::1792-2047            1      0.00%     99.99% # Reads before turning the bus around for writes
system.mem_ctrls.rdPerTurnAround::2560-2815            1      0.00%     99.99% # Reads before turning the bus around for writes
system.mem_ctrls.rdPerTurnAround::3328-3583            3      0.00%    100.00% # Reads before turning the bus around for writes
system.mem_ctrls.rdPerTurnAround::4608-4863            2      0.00%    100.00% # Reads before turning the bus around for writes
system.mem_ctrls.rdPerTurnAround::total         73569                       # Reads before turning the bus around for writes
system.mem_ctrls.wrPerTurnAround::samples        73569                       # Writes before turning the bus around for reads
system.mem_ctrls.wrPerTurnAround::mean      16.735894                       # Writes before turning the bus around for reads
system.mem_ctrls.wrPerTurnAround::gmean     16.708616                       # Writes before turning the bus around for reads
system.mem_ctrls.wrPerTurnAround::stdev      0.965845                       # Writes before turning the bus around for reads
system.mem_ctrls.wrPerTurnAround::16            46135     62.71%     62.71% # Writes before turning the bus around for reads
system.mem_ctrls.wrPerTurnAround::17             1185      1.61%     64.32% # Writes before turning the bus around for reads
system.mem_ctrls.wrPerTurnAround::18            25797     35.07%     99.39% # Writes before turning the bus around for reads
system.mem_ctrls.wrPerTurnAround::19              448      0.61%     99.99% # Writes before turning the bus around for reads
system.mem_ctrls.wrPerTurnAround::20                4      0.01%    100.00% # Writes before turning the bus around for reads
system.mem_ctrls.wrPerTurnAround::total         73569                       # Writes before turning the bus around for reads
system.mem_ctrls.totQLat                 176173259500                       # Total ticks spent queuing
system.mem_ctrls.totMemAccLat            320889003250                       # Total ticks spent from burst creation until serviced by the DRAM
system.mem_ctrls.totBusLat                38590865000                       # Total ticks spent in databus transfers
system.mem_ctrls.avgQLat                     22825.77                       # Average queueing delay per DRAM burst
system.mem_ctrls.avgBusLat                    5000.00                       # Average bus latency per DRAM burst
system.mem_ctrls.avgMemAccLat                41575.77                       # Average memory access latency per DRAM burst
system.mem_ctrls.avgRdBW                       282.53                       # Average DRAM read bandwidth in MiByte/s
system.mem_ctrls.avgWrBW                        45.07                       # Average achieved write bandwidth in MiByte/s
system.mem_ctrls.avgRdBWSys                    283.66                       # Average system read bandwidth in MiByte/s
system.mem_ctrls.avgWrBWSys                     45.13                       # Average system write bandwidth in MiByte/s
system.mem_ctrls.peakBW                      12800.00                       # Theoretical peak bandwidth in MiByte/s
system.mem_ctrls.busUtil                         2.56                       # Data bus utilization in percentage
system.mem_ctrls.busUtilRead                     2.21                       # Data bus utilization in percentage for reads
system.mem_ctrls.busUtilWrite                    0.35                       # Data bus utilization in percentage for writes
system.mem_ctrls.avgRdQLen                       1.00                       # Average read queue length when enqueuing
system.mem_ctrls.avgWrQLen                      24.95                       # Average write queue length when enqueuing
system.mem_ctrls.readRowHits                  1532813                       # Number of row buffer hits during reads
system.mem_ctrls.writeRowHits                  672460                       # Number of row buffer hits during writes
system.mem_ctrls.readRowHitRate                 19.86                       # Row buffer hit rate for reads
system.mem_ctrls.writeRowHitRate                54.62                       # Row buffer hit rate for writes
system.mem_ctrls.avgGap                     194657.03                       # Average gap between requests
system.mem_ctrls.pageHitRate                    24.64                       # Row buffer hit rate, read and write combined
system.mem_ctrls_0.actEnergy              25297959960                       # Energy for activate commands per rank (pJ)
system.mem_ctrls_0.preEnergy              13803450375                       # Energy for precharge commands per rank (pJ)
system.mem_ctrls_0.readEnergy             29856067800                       # Energy for read commands per rank (pJ)
system.mem_ctrls_0.writeEnergy             4030618320                       # Energy for write commands per rank (pJ)
system.mem_ctrls_0.refreshEnergy         114193588080                       # Energy for refresh commands per rank (pJ)
system.mem_ctrls_0.actBackEnergy         941665820715                       # Energy for active background per rank (pJ)
system.mem_ctrls_0.preBackEnergy         222986258250                       # Energy for precharge background per rank (pJ)
system.mem_ctrls_0.totalEnergy           1351833763500                       # Total energy per rank (pJ)
system.mem_ctrls_0.averagePower            773.206263                       # Core power per rank (mW)
system.mem_ctrls_0.memoryStateTime::IDLE 365234364250                       # Time in different power states
system.mem_ctrls_0.memoryStateTime::REF   58381180000                       # Time in different power states
system.mem_ctrls_0.memoryStateTime::PRE_PDN            0                       # Time in different power states
system.mem_ctrls_0.memoryStateTime::ACT  1324732649500                       # Time in different power states
system.mem_ctrls_0.memoryStateTime::ACT_PDN            0                       # Time in different power states
system.mem_ctrls_1.actEnergy              25687761120                       # Energy for activate commands per rank (pJ)
system.mem_ctrls_1.preEnergy              14016139500                       # Energy for precharge commands per rank (pJ)
system.mem_ctrls_1.readEnergy             30345681600                       # Energy for read commands per rank (pJ)
system.mem_ctrls_1.writeEnergy             3947836320                       # Energy for write commands per rank (pJ)
system.mem_ctrls_1.refreshEnergy         114193588080                       # Energy for refresh commands per rank (pJ)
system.mem_ctrls_1.actBackEnergy         943500750750                       # Energy for active background per rank (pJ)
system.mem_ctrls_1.preBackEnergy         221376670500                       # Energy for precharge background per rank (pJ)
system.mem_ctrls_1.totalEnergy           1353068427870                       # Total energy per rank (pJ)
system.mem_ctrls_1.averagePower            773.912453                       # Core power per rank (mW)
system.mem_ctrls_1.memoryStateTime::IDLE 362212642500                       # Time in different power states
system.mem_ctrls_1.memoryStateTime::REF   58381180000                       # Time in different power states
system.mem_ctrls_1.memoryStateTime::PRE_PDN            0                       # Time in different power states
system.mem_ctrls_1.memoryStateTime::ACT  1327754371250                       # Time in different power states
system.mem_ctrls_1.memoryStateTime::ACT_PDN            0                       # Time in different power states
system.cpu_voltage_domain.voltage                   1                       # Voltage in Volts
system.cpu_clk_domain.clock                       500                       # Clock period in ticks
system.cpu.apic_clk_domain.clock                 8000                       # Clock period in ticks
system.cpu.workload.num_syscalls                  168                       # Number of system calls
system.cpu.numCycles                       3496709473                       # number of cpu cycles simulated
system.cpu.numWorkItemsStarted                      0                       # number of work items this cpu started
system.cpu.numWorkItemsCompleted                    0                       # number of work items this cpu completed
system.cpu.committedInsts                   500000000                       # Number of instructions committed
system.cpu.committedOps                     876313791                       # Number of ops (including micro ops) committed
system.cpu.num_int_alu_accesses             872966650                       # Number of integer alu accesses
system.cpu.num_fp_alu_accesses                2882295                       # Number of float alu accesses
system.cpu.num_func_calls                    11025254                       # number of times a function call or return occured
system.cpu.num_conditional_control_insts     75981001                       # number of instructions that are conditional controls
system.cpu.num_int_insts                    872966650                       # number of integer instructions
system.cpu.num_fp_insts                       2882295                       # number of float instructions
system.cpu.num_int_register_reads          1835046799                       # number of times the integer registers were read
system.cpu.num_int_register_writes          703076403                       # number of times the integer registers were written
system.cpu.num_fp_register_reads              4386181                       # number of times the floating registers were read
system.cpu.num_fp_register_writes             2464451                       # number of times the floating registers were written
system.cpu.num_cc_register_reads            441654653                       # number of times the CC registers were read
system.cpu.num_cc_register_writes           253505530                       # number of times the CC registers were written
system.cpu.num_mem_refs                     293763540                       # number of memory refs
system.cpu.num_load_insts                   221284996                       # Number of load instructions
system.cpu.num_store_insts                   72478544                       # Number of store instructions
system.cpu.num_idle_cycles                          0                       # Number of idle cycles
system.cpu.num_busy_cycles                 3496709473                       # Number of busy cycles
system.cpu.not_idle_fraction                        1                       # Percentage of non-idle cycles
system.cpu.idle_fraction                            0                       # Percentage of idle cycles
system.cpu.Branches                          97900991                       # Number of branches fetched
system.cpu.op_class::No_OpClass                939429      0.11%      0.11% # Class of executed instruction
system.cpu.op_class::IntAlu                 578420275     66.01%     66.11% # Class of executed instruction
system.cpu.op_class::IntMult                   907073      0.10%     66.22% # Class of executed instruction
system.cpu.op_class::IntDiv                        42      0.00%     66.22% # Class of executed instruction
system.cpu.op_class::FloatAdd                 2283432      0.26%     66.48% # Class of executed instruction
system.cpu.op_class::FloatCmp                       0      0.00%     66.48% # Class of executed instruction
system.cpu.op_class::FloatCvt                       0      0.00%     66.48% # Class of executed instruction
system.cpu.op_class::FloatMult                      0      0.00%     66.48% # Class of executed instruction
system.cpu.op_class::FloatDiv                       0      0.00%     66.48% # Class of executed instruction
system.cpu.op_class::FloatSqrt                      0      0.00%     66.48% # Class of executed instruction
system.cpu.op_class::SimdAdd                        0      0.00%     66.48% # Class of executed instruction
system.cpu.op_class::SimdAddAcc                     0      0.00%     66.48% # Class of executed instruction
system.cpu.op_class::SimdAlu                        0      0.00%     66.48% # Class of executed instruction
system.cpu.op_class::SimdCmp                        0      0.00%     66.48% # Class of executed instruction
system.cpu.op_class::SimdCvt                        0      0.00%     66.48% # Class of executed instruction
system.cpu.op_class::SimdMisc                       0      0.00%     66.48% # Class of executed instruction
system.cpu.op_class::SimdMult                       0      0.00%     66.48% # Class of executed instruction
system.cpu.op_class::SimdMultAcc                    0      0.00%     66.48% # Class of executed instruction
system.cpu.op_class::SimdShift                      0      0.00%     66.48% # Class of executed instruction
system.cpu.op_class::SimdShiftAcc                   0      0.00%     66.48% # Class of executed instruction
system.cpu.op_class::SimdSqrt                       0      0.00%     66.48% # Class of executed instruction
system.cpu.op_class::SimdFloatAdd                   0      0.00%     66.48% # Class of executed instruction
system.cpu.op_class::SimdFloatAlu                   0      0.00%     66.48% # Class of executed instruction
system.cpu.op_class::SimdFloatCmp                   0      0.00%     66.48% # Class of executed instruction
system.cpu.op_class::SimdFloatCvt                   0      0.00%     66.48% # Class of executed instruction
system.cpu.op_class::SimdFloatDiv                   0      0.00%     66.48% # Class of executed instruction
system.cpu.op_class::SimdFloatMisc                  0      0.00%     66.48% # Class of executed instruction
system.cpu.op_class::SimdFloatMult                  0      0.00%     66.48% # Class of executed instruction
system.cpu.op_class::SimdFloatMultAcc               0      0.00%     66.48% # Class of executed instruction
system.cpu.op_class::SimdFloatSqrt                  0      0.00%     66.48% # Class of executed instruction
system.cpu.op_class::MemRead                221284996     25.25%     91.73% # Class of executed instruction
system.cpu.op_class::MemWrite                72478544      8.27%    100.00% # Class of executed instruction
system.cpu.op_class::IprAccess                      0      0.00%    100.00% # Class of executed instruction
system.cpu.op_class::InstPrefetch                   0      0.00%    100.00% # Class of executed instruction
system.cpu.op_class::total                  876313791                       # Class of executed instruction
system.cpu.dcache.tags.replacements          12496751                       # number of replacements
system.cpu.dcache.tags.tagsinuse          1023.846629                       # Cycle average of tags in use
system.cpu.dcache.tags.total_refs           281285958                       # Total number of references to valid blocks.
system.cpu.dcache.tags.sampled_refs          12497775                       # Sample count of references to valid blocks.
system.cpu.dcache.tags.avg_refs             22.506883                       # Average number of references to valid blocks.
system.cpu.dcache.tags.warmup_cycle         669625500                       # Cycle when the warmup percentage was hit.
system.cpu.dcache.tags.occ_blocks::cpu.data  1023.846629                       # Average occupied blocks per requestor
system.cpu.dcache.tags.occ_percent::cpu.data     0.999850                       # Average percentage of cache occupancy
system.cpu.dcache.tags.occ_percent::total     0.999850                       # Average percentage of cache occupancy
system.cpu.dcache.tags.occ_task_id_blocks::1024         1024                       # Occupied blocks per task id
system.cpu.dcache.tags.age_task_id_blocks_1024::0            4                       # Occupied blocks per task id
system.cpu.dcache.tags.age_task_id_blocks_1024::1          619                       # Occupied blocks per task id
system.cpu.dcache.tags.age_task_id_blocks_1024::2          387                       # Occupied blocks per task id
system.cpu.dcache.tags.age_task_id_blocks_1024::3           12                       # Occupied blocks per task id
system.cpu.dcache.tags.age_task_id_blocks_1024::4            2                       # Occupied blocks per task id
system.cpu.dcache.tags.occ_task_id_percent::1024            1                       # Percentage of cache occupancy per task id
system.cpu.dcache.tags.tag_accesses        1187632707                       # Number of tag accesses
system.cpu.dcache.tags.data_accesses       1187632707                       # Number of data accesses
system.cpu.dcache.ReadReq_hits::cpu.data    209215641                       # number of ReadReq hits
system.cpu.dcache.ReadReq_hits::total       209215641                       # number of ReadReq hits
system.cpu.dcache.WriteReq_hits::cpu.data     72070317                       # number of WriteReq hits
system.cpu.dcache.WriteReq_hits::total       72070317                       # number of WriteReq hits
system.cpu.dcache.demand_hits::cpu.data     281285958                       # number of demand (read+write) hits
system.cpu.dcache.demand_hits::total        281285958                       # number of demand (read+write) hits
system.cpu.dcache.overall_hits::cpu.data    281285958                       # number of overall hits
system.cpu.dcache.overall_hits::total       281285958                       # number of overall hits
system.cpu.dcache.ReadReq_misses::cpu.data     12083484                       # number of ReadReq misses
system.cpu.dcache.ReadReq_misses::total      12083484                       # number of ReadReq misses
system.cpu.dcache.WriteReq_misses::cpu.data       414291                       # number of WriteReq misses
system.cpu.dcache.WriteReq_misses::total       414291                       # number of WriteReq misses
system.cpu.dcache.demand_misses::cpu.data     12497775                       # number of demand (read+write) misses
system.cpu.dcache.demand_misses::total       12497775                       # number of demand (read+write) misses
system.cpu.dcache.overall_misses::cpu.data     12497775                       # number of overall misses
system.cpu.dcache.overall_misses::total      12497775                       # number of overall misses
system.cpu.dcache.ReadReq_miss_latency::cpu.data 768322090500                       # number of ReadReq miss cycles
system.cpu.dcache.ReadReq_miss_latency::total 768322090500                       # number of ReadReq miss cycles
system.cpu.dcache.WriteReq_miss_latency::cpu.data  21385840500                       # number of WriteReq miss cycles
system.cpu.dcache.WriteReq_miss_latency::total  21385840500                       # number of WriteReq miss cycles
system.cpu.dcache.demand_miss_latency::cpu.data 789707931000                       # number of demand (read+write) miss cycles
system.cpu.dcache.demand_miss_latency::total 789707931000                       # number of demand (read+write) miss cycles
system.cpu.dcache.overall_miss_latency::cpu.data 789707931000                       # number of overall miss cycles
system.cpu.dcache.overall_miss_latency::total 789707931000                       # number of overall miss cycles
system.cpu.dcache.ReadReq_accesses::cpu.data    221299125                       # number of ReadReq accesses(hits+misses)
system.cpu.dcache.ReadReq_accesses::total    221299125                       # number of ReadReq accesses(hits+misses)
system.cpu.dcache.WriteReq_accesses::cpu.data     72484608                       # number of WriteReq accesses(hits+misses)
system.cpu.dcache.WriteReq_accesses::total     72484608                       # number of WriteReq accesses(hits+misses)
system.cpu.dcache.demand_accesses::cpu.data    293783733                       # number of demand (read+write) accesses
system.cpu.dcache.demand_accesses::total    293783733                       # number of demand (read+write) accesses
system.cpu.dcache.overall_accesses::cpu.data    293783733                       # number of overall (read+write) accesses
system.cpu.dcache.overall_accesses::total    293783733                       # number of overall (read+write) accesses
system.cpu.dcache.ReadReq_miss_rate::cpu.data     0.054602                       # miss rate for ReadReq accesses
system.cpu.dcache.ReadReq_miss_rate::total     0.054602                       # miss rate for ReadReq accesses
system.cpu.dcache.WriteReq_miss_rate::cpu.data     0.005716                       # miss rate for WriteReq accesses
system.cpu.dcache.WriteReq_miss_rate::total     0.005716                       # miss rate for WriteReq accesses
system.cpu.dcache.demand_miss_rate::cpu.data     0.042541                       # miss rate for demand accesses
system.cpu.dcache.demand_miss_rate::total     0.042541                       # miss rate for demand accesses
system.cpu.dcache.overall_miss_rate::cpu.data     0.042541                       # miss rate for overall accesses
system.cpu.dcache.overall_miss_rate::total     0.042541                       # miss rate for overall accesses
system.cpu.dcache.ReadReq_avg_miss_latency::cpu.data 63584.483622                       # average ReadReq miss latency
system.cpu.dcache.ReadReq_avg_miss_latency::total 63584.483622                       # average ReadReq miss latency
system.cpu.dcache.WriteReq_avg_miss_latency::cpu.data 51620.335706                       # average WriteReq miss latency
system.cpu.dcache.WriteReq_avg_miss_latency::total 51620.335706                       # average WriteReq miss latency
system.cpu.dcache.demand_avg_miss_latency::cpu.data 63187.881923                       # average overall miss latency
system.cpu.dcache.demand_avg_miss_latency::total 63187.881923                       # average overall miss latency
system.cpu.dcache.overall_avg_miss_latency::cpu.data 63187.881923                       # average overall miss latency
system.cpu.dcache.overall_avg_miss_latency::total 63187.881923                       # average overall miss latency
system.cpu.dcache.blocked_cycles::no_mshrs            0                       # number of cycles access was blocked
system.cpu.dcache.blocked_cycles::no_targets            0                       # number of cycles access was blocked
system.cpu.dcache.blocked::no_mshrs                 0                       # number of cycles access was blocked
system.cpu.dcache.blocked::no_targets               0                       # number of cycles access was blocked
system.cpu.dcache.avg_blocked_cycles::no_mshrs          nan                       # average number of cycles each access was blocked
system.cpu.dcache.avg_blocked_cycles::no_targets          nan                       # average number of cycles each access was blocked
system.cpu.dcache.fast_writes                       0                       # number of fast writes performed
system.cpu.dcache.cache_copies                      0                       # number of cache copies performed
system.cpu.dcache.writebacks::writebacks      2373501                       # number of writebacks
system.cpu.dcache.writebacks::total           2373501                       # number of writebacks
system.cpu.dcache.ReadReq_mshr_misses::cpu.data     12083484                       # number of ReadReq MSHR misses
system.cpu.dcache.ReadReq_mshr_misses::total     12083484                       # number of ReadReq MSHR misses
system.cpu.dcache.WriteReq_mshr_misses::cpu.data       414291                       # number of WriteReq MSHR misses
system.cpu.dcache.WriteReq_mshr_misses::total       414291                       # number of WriteReq MSHR misses
system.cpu.dcache.demand_mshr_misses::cpu.data     12497775                       # number of demand (read+write) MSHR misses
system.cpu.dcache.demand_mshr_misses::total     12497775                       # number of demand (read+write) MSHR misses
system.cpu.dcache.overall_mshr_misses::cpu.data     12497775                       # number of overall MSHR misses
system.cpu.dcache.overall_mshr_misses::total     12497775                       # number of overall MSHR misses
system.cpu.dcache.ReadReq_mshr_miss_latency::cpu.data 756238606500                       # number of ReadReq MSHR miss cycles
system.cpu.dcache.ReadReq_mshr_miss_latency::total 756238606500                       # number of ReadReq MSHR miss cycles
system.cpu.dcache.WriteReq_mshr_miss_latency::cpu.data  20971549500                       # number of WriteReq MSHR miss cycles
system.cpu.dcache.WriteReq_mshr_miss_latency::total  20971549500                       # number of WriteReq MSHR miss cycles
system.cpu.dcache.demand_mshr_miss_latency::cpu.data 777210156000                       # number of demand (read+write) MSHR miss cycles
system.cpu.dcache.demand_mshr_miss_latency::total 777210156000                       # number of demand (read+write) MSHR miss cycles
system.cpu.dcache.overall_mshr_miss_latency::cpu.data 777210156000                       # number of overall MSHR miss cycles
system.cpu.dcache.overall_mshr_miss_latency::total 777210156000                       # number of overall MSHR miss cycles
system.cpu.dcache.ReadReq_mshr_miss_rate::cpu.data     0.054602                       # mshr miss rate for ReadReq accesses
system.cpu.dcache.ReadReq_mshr_miss_rate::total     0.054602                       # mshr miss rate for ReadReq accesses
system.cpu.dcache.WriteReq_mshr_miss_rate::cpu.data     0.005716                       # mshr miss rate for WriteReq accesses
system.cpu.dcache.WriteReq_mshr_miss_rate::total     0.005716                       # mshr miss rate for WriteReq accesses
system.cpu.dcache.demand_mshr_miss_rate::cpu.data     0.042541                       # mshr miss rate for demand accesses
system.cpu.dcache.demand_mshr_miss_rate::total     0.042541                       # mshr miss rate for demand accesses
system.cpu.dcache.overall_mshr_miss_rate::cpu.data     0.042541                       # mshr miss rate for overall accesses
system.cpu.dcache.overall_mshr_miss_rate::total     0.042541                       # mshr miss rate for overall accesses
system.cpu.dcache.ReadReq_avg_mshr_miss_latency::cpu.data 62584.483622                       # average ReadReq mshr miss latency
system.cpu.dcache.ReadReq_avg_mshr_miss_latency::total 62584.483622                       # average ReadReq mshr miss latency
system.cpu.dcache.WriteReq_avg_mshr_miss_latency::cpu.data 50620.335706                       # average WriteReq mshr miss latency
system.cpu.dcache.WriteReq_avg_mshr_miss_latency::total 50620.335706                       # average WriteReq mshr miss latency
system.cpu.dcache.demand_avg_mshr_miss_latency::cpu.data 62187.881923                       # average overall mshr miss latency
system.cpu.dcache.demand_avg_mshr_miss_latency::total 62187.881923                       # average overall mshr miss latency
system.cpu.dcache.overall_avg_mshr_miss_latency::cpu.data 62187.881923                       # average overall mshr miss latency
system.cpu.dcache.overall_avg_mshr_miss_latency::total 62187.881923                       # average overall mshr miss latency
system.cpu.dcache.no_allocate_misses                0                       # Number of misses that were no-allocate
system.cpu.dtb_walker_cache.tags.replacements            0                       # number of replacements
system.cpu.dtb_walker_cache.tags.tagsinuse            0                       # Cycle average of tags in use
system.cpu.dtb_walker_cache.tags.total_refs            0                       # Total number of references to valid blocks.
system.cpu.dtb_walker_cache.tags.sampled_refs            0                       # Sample count of references to valid blocks.
system.cpu.dtb_walker_cache.tags.avg_refs          nan                       # Average number of references to valid blocks.
system.cpu.dtb_walker_cache.tags.warmup_cycle            0                       # Cycle when the warmup percentage was hit.
system.cpu.dtb_walker_cache.tags.tag_accesses            0                       # Number of tag accesses
system.cpu.dtb_walker_cache.tags.data_accesses            0                       # Number of data accesses
system.cpu.dtb_walker_cache.blocked_cycles::no_mshrs            0                       # number of cycles access was blocked
system.cpu.dtb_walker_cache.blocked_cycles::no_targets            0                       # number of cycles access was blocked
system.cpu.dtb_walker_cache.blocked::no_mshrs            0                       # number of cycles access was blocked
system.cpu.dtb_walker_cache.blocked::no_targets            0                       # number of cycles access was blocked
system.cpu.dtb_walker_cache.avg_blocked_cycles::no_mshrs          nan                       # average number of cycles each access was blocked
system.cpu.dtb_walker_cache.avg_blocked_cycles::no_targets          nan                       # average number of cycles each access was blocked
system.cpu.dtb_walker_cache.fast_writes             0                       # number of fast writes performed
system.cpu.dtb_walker_cache.cache_copies            0                       # number of cache copies performed
system.cpu.dtb_walker_cache.no_allocate_misses            0                       # Number of misses that were no-allocate
system.cpu.icache.tags.replacements                32                       # number of replacements
system.cpu.icache.tags.tagsinuse           617.656236                       # Cycle average of tags in use
system.cpu.icache.tags.total_refs           677317253                       # Total number of references to valid blocks.
system.cpu.icache.tags.sampled_refs               681                       # Sample count of references to valid blocks.
system.cpu.icache.tags.avg_refs          994592.148311                       # Average number of references to valid blocks.
system.cpu.icache.tags.warmup_cycle                 0                       # Cycle when the warmup percentage was hit.
system.cpu.icache.tags.occ_blocks::cpu.inst   617.656236                       # Average occupied blocks per requestor
system.cpu.icache.tags.occ_percent::cpu.inst     0.603180                       # Average percentage of cache occupancy
system.cpu.icache.tags.occ_percent::total     0.603180                       # Average percentage of cache occupancy
system.cpu.icache.tags.occ_task_id_blocks::1024          649                       # Occupied blocks per task id
system.cpu.icache.tags.age_task_id_blocks_1024::4          649                       # Occupied blocks per task id
system.cpu.icache.tags.occ_task_id_percent::1024     0.633789                       # Percentage of cache occupancy per task id
system.cpu.icache.tags.tag_accesses        2709272417                       # Number of tag accesses
system.cpu.icache.tags.data_accesses       2709272417                       # Number of data accesses
system.cpu.icache.ReadReq_hits::cpu.inst    677317253                       # number of ReadReq hits
system.cpu.icache.ReadReq_hits::total       677317253                       # number of ReadReq hits
system.cpu.icache.demand_hits::cpu.inst     677317253                       # number of demand (read+write) hits
system.cpu.icache.demand_hits::total        677317253                       # number of demand (read+write) hits
system.cpu.icache.overall_hits::cpu.inst    677317253                       # number of overall hits
system.cpu.icache.overall_hits::total       677317253                       # number of overall hits
system.cpu.icache.ReadReq_misses::cpu.inst          681                       # number of ReadReq misses
system.cpu.icache.ReadReq_misses::total           681                       # number of ReadReq misses
system.cpu.icache.demand_misses::cpu.inst          681                       # number of demand (read+write) misses
system.cpu.icache.demand_misses::total            681                       # number of demand (read+write) misses
system.cpu.icache.overall_misses::cpu.inst          681                       # number of overall misses
system.cpu.icache.overall_misses::total           681                       # number of overall misses
system.cpu.icache.ReadReq_miss_latency::cpu.inst     53705000                       # number of ReadReq miss cycles
system.cpu.icache.ReadReq_miss_latency::total     53705000                       # number of ReadReq miss cycles
system.cpu.icache.demand_miss_latency::cpu.inst     53705000                       # number of demand (read+write) miss cycles
system.cpu.icache.demand_miss_latency::total     53705000                       # number of demand (read+write) miss cycles
system.cpu.icache.overall_miss_latency::cpu.inst     53705000                       # number of overall miss cycles
system.cpu.icache.overall_miss_latency::total     53705000                       # number of overall miss cycles
system.cpu.icache.ReadReq_accesses::cpu.inst    677317934                       # number of ReadReq accesses(hits+misses)
system.cpu.icache.ReadReq_accesses::total    677317934                       # number of ReadReq accesses(hits+misses)
system.cpu.icache.demand_accesses::cpu.inst    677317934                       # number of demand (read+write) accesses
system.cpu.icache.demand_accesses::total    677317934                       # number of demand (read+write) accesses
system.cpu.icache.overall_accesses::cpu.inst    677317934                       # number of overall (read+write) accesses
system.cpu.icache.overall_accesses::total    677317934                       # number of overall (read+write) accesses
system.cpu.icache.ReadReq_miss_rate::cpu.inst     0.000001                       # miss rate for ReadReq accesses
system.cpu.icache.ReadReq_miss_rate::total     0.000001                       # miss rate for ReadReq accesses
system.cpu.icache.demand_miss_rate::cpu.inst     0.000001                       # miss rate for demand accesses
system.cpu.icache.demand_miss_rate::total     0.000001                       # miss rate for demand accesses
system.cpu.icache.overall_miss_rate::cpu.inst     0.000001                       # miss rate for overall accesses
system.cpu.icache.overall_miss_rate::total     0.000001                       # miss rate for overall accesses
system.cpu.icache.ReadReq_avg_miss_latency::cpu.inst 78861.967695                       # average ReadReq miss latency
system.cpu.icache.ReadReq_avg_miss_latency::total 78861.967695                       # average ReadReq miss latency
system.cpu.icache.demand_avg_miss_latency::cpu.inst 78861.967695                       # average overall miss latency
system.cpu.icache.demand_avg_miss_latency::total 78861.967695                       # average overall miss latency
system.cpu.icache.overall_avg_miss_latency::cpu.inst 78861.967695                       # average overall miss latency
system.cpu.icache.overall_avg_miss_latency::total 78861.967695                       # average overall miss latency
system.cpu.icache.blocked_cycles::no_mshrs            0                       # number of cycles access was blocked
system.cpu.icache.blocked_cycles::no_targets            0                       # number of cycles access was blocked
system.cpu.icache.blocked::no_mshrs                 0                       # number of cycles access was blocked
system.cpu.icache.blocked::no_targets               0                       # number of cycles access was blocked
system.cpu.icache.avg_blocked_cycles::no_mshrs          nan                       # average number of cycles each access was blocked
system.cpu.icache.avg_blocked_cycles::no_targets          nan                       # average number of cycles each access was blocked
system.cpu.icache.fast_writes                       0                       # number of fast writes performed
system.cpu.icache.cache_copies                      0                       # number of cache copies performed
system.cpu.icache.writebacks::writebacks           32                       # number of writebacks
system.cpu.icache.writebacks::total                32                       # number of writebacks
system.cpu.icache.ReadReq_mshr_misses::cpu.inst          681                       # number of ReadReq MSHR misses
system.cpu.icache.ReadReq_mshr_misses::total          681                       # number of ReadReq MSHR misses
system.cpu.icache.demand_mshr_misses::cpu.inst          681                       # number of demand (read+write) MSHR misses
system.cpu.icache.demand_mshr_misses::total          681                       # number of demand (read+write) MSHR misses
system.cpu.icache.overall_mshr_misses::cpu.inst          681                       # number of overall MSHR misses
system.cpu.icache.overall_mshr_misses::total          681                       # number of overall MSHR misses
system.cpu.icache.ReadReq_mshr_miss_latency::cpu.inst     53024000                       # number of ReadReq MSHR miss cycles
system.cpu.icache.ReadReq_mshr_miss_latency::total     53024000                       # number of ReadReq MSHR miss cycles
system.cpu.icache.demand_mshr_miss_latency::cpu.inst     53024000                       # number of demand (read+write) MSHR miss cycles
system.cpu.icache.demand_mshr_miss_latency::total     53024000                       # number of demand (read+write) MSHR miss cycles
system.cpu.icache.overall_mshr_miss_latency::cpu.inst     53024000                       # number of overall MSHR miss cycles
system.cpu.icache.overall_mshr_miss_latency::total     53024000                       # number of overall MSHR miss cycles
system.cpu.icache.ReadReq_mshr_miss_rate::cpu.inst     0.000001                       # mshr miss rate for ReadReq accesses
system.cpu.icache.ReadReq_mshr_miss_rate::total     0.000001                       # mshr miss rate for ReadReq accesses
system.cpu.icache.demand_mshr_miss_rate::cpu.inst     0.000001                       # mshr miss rate for demand accesses
system.cpu.icache.demand_mshr_miss_rate::total     0.000001                       # mshr miss rate for demand accesses
system.cpu.icache.overall_mshr_miss_rate::cpu.inst     0.000001                       # mshr miss rate for overall accesses
system.cpu.icache.overall_mshr_miss_rate::total     0.000001                       # mshr miss rate for overall accesses
system.cpu.icache.ReadReq_avg_mshr_miss_latency::cpu.inst 77861.967695                       # average ReadReq mshr miss latency
system.cpu.icache.ReadReq_avg_mshr_miss_latency::total 77861.967695                       # average ReadReq mshr miss latency
system.cpu.icache.demand_avg_mshr_miss_latency::cpu.inst 77861.967695                       # average overall mshr miss latency
system.cpu.icache.demand_avg_mshr_miss_latency::total 77861.967695                       # average overall mshr miss latency
system.cpu.icache.overall_avg_mshr_miss_latency::cpu.inst 77861.967695                       # average overall mshr miss latency
system.cpu.icache.overall_avg_mshr_miss_latency::total 77861.967695                       # average overall mshr miss latency
system.cpu.icache.no_allocate_misses                0                       # Number of misses that were no-allocate
system.cpu.itb_walker_cache.tags.replacements            0                       # number of replacements
system.cpu.itb_walker_cache.tags.tagsinuse            0                       # Cycle average of tags in use
system.cpu.itb_walker_cache.tags.total_refs            0                       # Total number of references to valid blocks.
system.cpu.itb_walker_cache.tags.sampled_refs            0                       # Sample count of references to valid blocks.
system.cpu.itb_walker_cache.tags.avg_refs          nan                       # Average number of references to valid blocks.
system.cpu.itb_walker_cache.tags.warmup_cycle            0                       # Cycle when the warmup percentage was hit.
system.cpu.itb_walker_cache.tags.tag_accesses            0                       # Number of tag accesses
system.cpu.itb_walker_cache.tags.data_accesses            0                       # Number of data accesses
system.cpu.itb_walker_cache.blocked_cycles::no_mshrs            0                       # number of cycles access was blocked
system.cpu.itb_walker_cache.blocked_cycles::no_targets            0                       # number of cycles access was blocked
system.cpu.itb_walker_cache.blocked::no_mshrs            0                       # number of cycles access was blocked
system.cpu.itb_walker_cache.blocked::no_targets            0                       # number of cycles access was blocked
system.cpu.itb_walker_cache.avg_blocked_cycles::no_mshrs          nan                       # average number of cycles each access was blocked
system.cpu.itb_walker_cache.avg_blocked_cycles::no_targets          nan                       # average number of cycles each access was blocked
system.cpu.itb_walker_cache.fast_writes             0                       # number of fast writes performed
system.cpu.itb_walker_cache.cache_copies            0                       # number of cache copies performed
system.cpu.itb_walker_cache.no_allocate_misses            0                       # Number of misses that were no-allocate
system.l2.tags.replacements                   7926285                       # number of replacements
system.l2.tags.tagsinuse                  8025.966344                       # Cycle average of tags in use
system.l2.tags.total_refs                    15636919                       # Total number of references to valid blocks.
system.l2.tags.sampled_refs                   7934438                       # Sample count of references to valid blocks.
system.l2.tags.avg_refs                      1.970766                       # Average number of references to valid blocks.
system.l2.tags.warmup_cycle              330860425500                       # Cycle when the warmup percentage was hit.
system.l2.tags.occ_blocks::writebacks     1462.042683                       # Average occupied blocks per requestor
system.l2.tags.occ_blocks::cpu.inst          0.945852                       # Average occupied blocks per requestor
system.l2.tags.occ_blocks::cpu.data       6562.977808                       # Average occupied blocks per requestor
system.l2.tags.occ_percent::writebacks       0.178472                       # Average percentage of cache occupancy
system.l2.tags.occ_percent::cpu.inst         0.000115                       # Average percentage of cache occupancy
system.l2.tags.occ_percent::cpu.data         0.801145                       # Average percentage of cache occupancy
system.l2.tags.occ_percent::total            0.979732                       # Average percentage of cache occupancy
system.l2.tags.occ_task_id_blocks::1024          8153                       # Occupied blocks per task id
system.l2.tags.age_task_id_blocks_1024::1          452                       # Occupied blocks per task id
system.l2.tags.age_task_id_blocks_1024::2         3077                       # Occupied blocks per task id
system.l2.tags.age_task_id_blocks_1024::3         3895                       # Occupied blocks per task id
system.l2.tags.age_task_id_blocks_1024::4          729                       # Occupied blocks per task id
system.l2.tags.occ_task_id_percent::1024     0.995239                       # Percentage of cache occupancy per task id
system.l2.tags.tag_accesses                  33343967                       # Number of tag accesses
system.l2.tags.data_accesses                 33343967                       # Number of data accesses
system.l2.WritebackDirty_hits::writebacks      2373501                       # number of WritebackDirty hits
system.l2.WritebackDirty_hits::total          2373501                       # number of WritebackDirty hits
system.l2.WritebackClean_hits::writebacks           32                       # number of WritebackClean hits
system.l2.WritebackClean_hits::total               32                       # number of WritebackClean hits
system.l2.ReadExReq_hits::cpu.data             183196                       # number of ReadExReq hits
system.l2.ReadExReq_hits::total                183196                       # number of ReadExReq hits
system.l2.ReadCleanReq_hits::cpu.inst               2                       # number of ReadCleanReq hits
system.l2.ReadCleanReq_hits::total                  2                       # number of ReadCleanReq hits
system.l2.ReadSharedReq_hits::cpu.data        4566355                       # number of ReadSharedReq hits
system.l2.ReadSharedReq_hits::total           4566355                       # number of ReadSharedReq hits
system.l2.demand_hits::cpu.inst                     2                       # number of demand (read+write) hits
system.l2.demand_hits::cpu.data               4749551                       # number of demand (read+write) hits
system.l2.demand_hits::total                  4749553                       # number of demand (read+write) hits
system.l2.overall_hits::cpu.inst                    2                       # number of overall hits
system.l2.overall_hits::cpu.data              4749551                       # number of overall hits
system.l2.overall_hits::total                 4749553                       # number of overall hits
system.l2.ReadExReq_misses::cpu.data           231095                       # number of ReadExReq misses
system.l2.ReadExReq_misses::total              231095                       # number of ReadExReq misses
system.l2.ReadCleanReq_misses::cpu.inst           679                       # number of ReadCleanReq misses
system.l2.ReadCleanReq_misses::total              679                       # number of ReadCleanReq misses
system.l2.ReadSharedReq_misses::cpu.data      7517129                       # number of ReadSharedReq misses
system.l2.ReadSharedReq_misses::total         7517129                       # number of ReadSharedReq misses
system.l2.demand_misses::cpu.inst                 679                       # number of demand (read+write) misses
system.l2.demand_misses::cpu.data             7748224                       # number of demand (read+write) misses
system.l2.demand_misses::total                7748903                       # number of demand (read+write) misses
system.l2.overall_misses::cpu.inst                679                       # number of overall misses
system.l2.overall_misses::cpu.data            7748224                       # number of overall misses
system.l2.overall_misses::total               7748903                       # number of overall misses
system.l2.ReadExReq_miss_latency::cpu.data  18426554000                       # number of ReadExReq miss cycles
system.l2.ReadExReq_miss_latency::total   18426554000                       # number of ReadExReq miss cycles
system.l2.ReadCleanReq_miss_latency::cpu.inst     51978500                       # number of ReadCleanReq miss cycles
system.l2.ReadCleanReq_miss_latency::total     51978500                       # number of ReadCleanReq miss cycles
system.l2.ReadSharedReq_miss_latency::cpu.data 690166653000                       # number of ReadSharedReq miss cycles
system.l2.ReadSharedReq_miss_latency::total 690166653000                       # number of ReadSharedReq miss cycles
system.l2.demand_miss_latency::cpu.inst      51978500                       # number of demand (read+write) miss cycles
system.l2.demand_miss_latency::cpu.data  708593207000                       # number of demand (read+write) miss cycles
system.l2.demand_miss_latency::total     708645185500                       # number of demand (read+write) miss cycles
system.l2.overall_miss_latency::cpu.inst     51978500                       # number of overall miss cycles
system.l2.overall_miss_latency::cpu.data 708593207000                       # number of overall miss cycles
system.l2.overall_miss_latency::total    708645185500                       # number of overall miss cycles
system.l2.WritebackDirty_accesses::writebacks      2373501                       # number of WritebackDirty accesses(hits+misses)
system.l2.WritebackDirty_accesses::total      2373501                       # number of WritebackDirty accesses(hits+misses)
system.l2.WritebackClean_accesses::writebacks           32                       # number of WritebackClean accesses(hits+misses)
system.l2.WritebackClean_accesses::total           32                       # number of WritebackClean accesses(hits+misses)
system.l2.ReadExReq_accesses::cpu.data         414291                       # number of ReadExReq accesses(hits+misses)
system.l2.ReadExReq_accesses::total            414291                       # number of ReadExReq accesses(hits+misses)
system.l2.ReadCleanReq_accesses::cpu.inst          681                       # number of ReadCleanReq accesses(hits+misses)
system.l2.ReadCleanReq_accesses::total            681                       # number of ReadCleanReq accesses(hits+misses)
system.l2.ReadSharedReq_accesses::cpu.data     12083484                       # number of ReadSharedReq accesses(hits+misses)
system.l2.ReadSharedReq_accesses::total      12083484                       # number of ReadSharedReq accesses(hits+misses)
system.l2.demand_accesses::cpu.inst               681                       # number of demand (read+write) accesses
system.l2.demand_accesses::cpu.data          12497775                       # number of demand (read+write) accesses
system.l2.demand_accesses::total             12498456                       # number of demand (read+write) accesses
system.l2.overall_accesses::cpu.inst              681                       # number of overall (read+write) accesses
system.l2.overall_accesses::cpu.data         12497775                       # number of overall (read+write) accesses
system.l2.overall_accesses::total            12498456                       # number of overall (read+write) accesses
system.l2.ReadExReq_miss_rate::cpu.data      0.557808                       # miss rate for ReadExReq accesses
system.l2.ReadExReq_miss_rate::total         0.557808                       # miss rate for ReadExReq accesses
system.l2.ReadCleanReq_miss_rate::cpu.inst     0.997063                       # miss rate for ReadCleanReq accesses
system.l2.ReadCleanReq_miss_rate::total      0.997063                       # miss rate for ReadCleanReq accesses
system.l2.ReadSharedReq_miss_rate::cpu.data     0.622099                       # miss rate for ReadSharedReq accesses
system.l2.ReadSharedReq_miss_rate::total     0.622099                       # miss rate for ReadSharedReq accesses
system.l2.demand_miss_rate::cpu.inst         0.997063                       # miss rate for demand accesses
system.l2.demand_miss_rate::cpu.data         0.619968                       # miss rate for demand accesses
system.l2.demand_miss_rate::total            0.619989                       # miss rate for demand accesses
system.l2.overall_miss_rate::cpu.inst        0.997063                       # miss rate for overall accesses
system.l2.overall_miss_rate::cpu.data        0.619968                       # miss rate for overall accesses
system.l2.overall_miss_rate::total           0.619989                       # miss rate for overall accesses
system.l2.ReadExReq_avg_miss_latency::cpu.data 79735.840239                       # average ReadExReq miss latency
system.l2.ReadExReq_avg_miss_latency::total 79735.840239                       # average ReadExReq miss latency
system.l2.ReadCleanReq_avg_miss_latency::cpu.inst 76551.546392                       # average ReadCleanReq miss latency
system.l2.ReadCleanReq_avg_miss_latency::total 76551.546392                       # average ReadCleanReq miss latency
system.l2.ReadSharedReq_avg_miss_latency::cpu.data 91812.532817                       # average ReadSharedReq miss latency
system.l2.ReadSharedReq_avg_miss_latency::total 91812.532817                       # average ReadSharedReq miss latency
system.l2.demand_avg_miss_latency::cpu.inst 76551.546392                       # average overall miss latency
system.l2.demand_avg_miss_latency::cpu.data 91452.338884                       # average overall miss latency
system.l2.demand_avg_miss_latency::total 91451.033198                       # average overall miss latency
system.l2.overall_avg_miss_latency::cpu.inst 76551.546392                       # average overall miss latency
system.l2.overall_avg_miss_latency::cpu.data 91452.338884                       # average overall miss latency
system.l2.overall_avg_miss_latency::total 91451.033198                       # average overall miss latency
system.l2.blocked_cycles::no_mshrs                  0                       # number of cycles access was blocked
system.l2.blocked_cycles::no_targets                0                       # number of cycles access was blocked
system.l2.blocked::no_mshrs                         0                       # number of cycles access was blocked
system.l2.blocked::no_targets                       0                       # number of cycles access was blocked
system.l2.avg_blocked_cycles::no_mshrs            nan                       # average number of cycles each access was blocked
system.l2.avg_blocked_cycles::no_targets          nan                       # average number of cycles each access was blocked
system.l2.fast_writes                               0                       # number of fast writes performed
system.l2.cache_copies                              0                       # number of cache copies performed
system.l2.writebacks::writebacks              1232740                       # number of writebacks
system.l2.writebacks::total                   1232740                       # number of writebacks
system.l2.CleanEvict_mshr_misses::writebacks      1009463                       # number of CleanEvict MSHR misses
system.l2.CleanEvict_mshr_misses::total       1009463                       # number of CleanEvict MSHR misses
system.l2.ReadExReq_mshr_misses::cpu.data       231095                       # number of ReadExReq MSHR misses
system.l2.ReadExReq_mshr_misses::total         231095                       # number of ReadExReq MSHR misses
system.l2.ReadCleanReq_mshr_misses::cpu.inst          679                       # number of ReadCleanReq MSHR misses
system.l2.ReadCleanReq_mshr_misses::total          679                       # number of ReadCleanReq MSHR misses
system.l2.ReadSharedReq_mshr_misses::cpu.data      7517129                       # number of ReadSharedReq MSHR misses
system.l2.ReadSharedReq_mshr_misses::total      7517129                       # number of ReadSharedReq MSHR misses
system.l2.demand_mshr_misses::cpu.inst            679                       # number of demand (read+write) MSHR misses
system.l2.demand_mshr_misses::cpu.data        7748224                       # number of demand (read+write) MSHR misses
system.l2.demand_mshr_misses::total           7748903                       # number of demand (read+write) MSHR misses
system.l2.overall_mshr_misses::cpu.inst           679                       # number of overall MSHR misses
system.l2.overall_mshr_misses::cpu.data       7748224                       # number of overall MSHR misses
system.l2.overall_mshr_misses::total          7748903                       # number of overall MSHR misses
system.l2.ReadExReq_mshr_miss_latency::cpu.data  16115604000                       # number of ReadExReq MSHR miss cycles
system.l2.ReadExReq_mshr_miss_latency::total  16115604000                       # number of ReadExReq MSHR miss cycles
system.l2.ReadCleanReq_mshr_miss_latency::cpu.inst     45188500                       # number of ReadCleanReq MSHR miss cycles
system.l2.ReadCleanReq_mshr_miss_latency::total     45188500                       # number of ReadCleanReq MSHR miss cycles
system.l2.ReadSharedReq_mshr_miss_latency::cpu.data 614995363000                       # number of ReadSharedReq MSHR miss cycles
system.l2.ReadSharedReq_mshr_miss_latency::total 614995363000                       # number of ReadSharedReq MSHR miss cycles
system.l2.demand_mshr_miss_latency::cpu.inst     45188500                       # number of demand (read+write) MSHR miss cycles
system.l2.demand_mshr_miss_latency::cpu.data 631110967000                       # number of demand (read+write) MSHR miss cycles
system.l2.demand_mshr_miss_latency::total 631156155500                       # number of demand (read+write) MSHR miss cycles
system.l2.overall_mshr_miss_latency::cpu.inst     45188500                       # number of overall MSHR miss cycles
system.l2.overall_mshr_miss_latency::cpu.data 631110967000                       # number of overall MSHR miss cycles
system.l2.overall_mshr_miss_latency::total 631156155500                       # number of overall MSHR miss cycles
system.l2.CleanEvict_mshr_miss_rate::writebacks          inf                       # mshr miss rate for CleanEvict accesses
system.l2.CleanEvict_mshr_miss_rate::total          inf                       # mshr miss rate for CleanEvict accesses
system.l2.ReadExReq_mshr_miss_rate::cpu.data     0.557808                       # mshr miss rate for ReadExReq accesses
system.l2.ReadExReq_mshr_miss_rate::total     0.557808                       # mshr miss rate for ReadExReq accesses
system.l2.ReadCleanReq_mshr_miss_rate::cpu.inst     0.997063                       # mshr miss rate for ReadCleanReq accesses
system.l2.ReadCleanReq_mshr_miss_rate::total     0.997063                       # mshr miss rate for ReadCleanReq accesses
system.l2.ReadSharedReq_mshr_miss_rate::cpu.data     0.622099                       # mshr miss rate for ReadSharedReq accesses
system.l2.ReadSharedReq_mshr_miss_rate::total     0.622099                       # mshr miss rate for ReadSharedReq accesses
system.l2.demand_mshr_miss_rate::cpu.inst     0.997063                       # mshr miss rate for demand accesses
system.l2.demand_mshr_miss_rate::cpu.data     0.619968                       # mshr miss rate for demand accesses
system.l2.demand_mshr_miss_rate::total       0.619989                       # mshr miss rate for demand accesses
system.l2.overall_mshr_miss_rate::cpu.inst     0.997063                       # mshr miss rate for overall accesses
system.l2.overall_mshr_miss_rate::cpu.data     0.619968                       # mshr miss rate for overall accesses
system.l2.overall_mshr_miss_rate::total      0.619989                       # mshr miss rate for overall accesses
system.l2.ReadExReq_avg_mshr_miss_latency::cpu.data 69735.840239                       # average ReadExReq mshr miss latency
system.l2.ReadExReq_avg_mshr_miss_latency::total 69735.840239                       # average ReadExReq mshr miss latency
system.l2.ReadCleanReq_avg_mshr_miss_latency::cpu.inst 66551.546392                       # average ReadCleanReq mshr miss latency
system.l2.ReadCleanReq_avg_mshr_miss_latency::total 66551.546392                       # average ReadCleanReq mshr miss latency
system.l2.ReadSharedReq_avg_mshr_miss_latency::cpu.data 81812.532817                       # average ReadSharedReq mshr miss latency
system.l2.ReadSharedReq_avg_mshr_miss_latency::total 81812.532817                       # average ReadSharedReq mshr miss latency
system.l2.demand_avg_mshr_miss_latency::cpu.inst 66551.546392                       # average overall mshr miss latency
system.l2.demand_avg_mshr_miss_latency::cpu.data 81452.338884                       # average overall mshr miss latency
system.l2.demand_avg_mshr_miss_latency::total 81451.033198                       # average overall mshr miss latency
system.l2.overall_avg_mshr_miss_latency::cpu.inst 66551.546392                       # average overall mshr miss latency
system.l2.overall_avg_mshr_miss_latency::cpu.data 81452.338884                       # average overall mshr miss latency
system.l2.overall_avg_mshr_miss_latency::total 81451.033198                       # average overall mshr miss latency
system.l2.no_allocate_misses                        0                       # Number of misses that were no-allocate
system.membus.trans_dist::ReadResp            7517808                       # Transaction distribution
system.membus.trans_dist::WritebackDirty      1232740                       # Transaction distribution
system.membus.trans_dist::CleanEvict          6507268                       # Transaction distribution
system.membus.trans_dist::ReadExReq            231095                       # Transaction distribution
system.membus.trans_dist::ReadExResp           231095                       # Transaction distribution
system.membus.trans_dist::ReadSharedReq       7517808                       # Transaction distribution
system.membus.pkt_count_system.l2.mem_side::system.mem_ctrls.port     23237814                       # Packet count per connected master and slave (bytes)
system.membus.pkt_count_system.l2.mem_side::total     23237814                       # Packet count per connected master and slave (bytes)
system.membus.pkt_count::total               23237814                       # Packet count per connected master and slave (bytes)
system.membus.pkt_size_system.l2.mem_side::system.mem_ctrls.port    574825152                       # Cumulative packet size per connected master and slave (bytes)
system.membus.pkt_size_system.l2.mem_side::total    574825152                       # Cumulative packet size per connected master and slave (bytes)
system.membus.pkt_size::total               574825152                       # Cumulative packet size per connected master and slave (bytes)
system.membus.snoops                                0                       # Total snoops (count)
system.membus.snoop_fanout::samples          15488911                       # Request fanout histogram
system.membus.snoop_fanout::mean                    0                       # Request fanout histogram
system.membus.snoop_fanout::stdev                   0                       # Request fanout histogram
system.membus.snoop_fanout::underflows              0      0.00%      0.00% # Request fanout histogram
system.membus.snoop_fanout::0                15488911    100.00%    100.00% # Request fanout histogram
system.membus.snoop_fanout::1                       0      0.00%    100.00% # Request fanout histogram
system.membus.snoop_fanout::overflows               0      0.00%    100.00% # Request fanout histogram
system.membus.snoop_fanout::min_value               0                       # Request fanout histogram
system.membus.snoop_fanout::max_value               0                       # Request fanout histogram
system.membus.snoop_fanout::total            15488911                       # Request fanout histogram
system.membus.reqLayer2.occupancy         20428566000                       # Layer occupancy (ticks)
system.membus.reqLayer2.utilization               1.2                       # Layer utilization (%)
system.membus.respLayer1.occupancy        43224120750                       # Layer occupancy (ticks)
system.membus.respLayer1.utilization              2.5                       # Layer utilization (%)
system.tol2bus.snoop_filter.tot_requests     24995239                       # Total number of requests made to the snoop filter.
system.tol2bus.snoop_filter.hit_single_requests     12496783                       # Number of requests hitting in the snoop filter with a single holder of the requested data.
system.tol2bus.snoop_filter.hit_multi_requests            1                       # Number of requests hitting in the snoop filter with multiple (>1) holders of the requested data.
system.tol2bus.snoop_filter.tot_snoops        1195740                       # Total number of snoops made to the snoop filter.
system.tol2bus.snoop_filter.hit_single_snoops      1195740                       # Number of snoops hitting in the snoop filter with a single holder of the requested data.
system.tol2bus.snoop_filter.hit_multi_snoops            0                       # Number of snoops hitting in the snoop filter with multiple (>1) holders of the requested data.
system.tol2bus.trans_dist::ReadResp          12084165                       # Transaction distribution
system.tol2bus.trans_dist::WritebackDirty      3606241                       # Transaction distribution
system.tol2bus.trans_dist::WritebackClean           32                       # Transaction distribution
system.tol2bus.trans_dist::CleanEvict        16816794                       # Transaction distribution
system.tol2bus.trans_dist::ReadExReq           414291                       # Transaction distribution
system.tol2bus.trans_dist::ReadExResp          414291                       # Transaction distribution
system.tol2bus.trans_dist::ReadCleanReq           681                       # Transaction distribution
system.tol2bus.trans_dist::ReadSharedReq     12083484                       # Transaction distribution
system.tol2bus.pkt_count_system.cpu.icache.mem_side::system.l2.cpu_side         1394                       # Packet count per connected master and slave (bytes)
system.tol2bus.pkt_count_system.cpu.dcache.mem_side::system.l2.cpu_side     37492300                       # Packet count per connected master and slave (bytes)
system.tol2bus.pkt_count::total              37493694                       # Packet count per connected master and slave (bytes)
system.tol2bus.pkt_size_system.cpu.icache.mem_side::system.l2.cpu_side        45632                       # Cumulative packet size per connected master and slave (bytes)
system.tol2bus.pkt_size_system.cpu.dcache.mem_side::system.l2.cpu_side    951761664                       # Cumulative packet size per connected master and slave (bytes)
system.tol2bus.pkt_size::total              951807296                       # Cumulative packet size per connected master and slave (bytes)
system.tol2bus.snoops                         7926285                       # Total snoops (count)
system.tol2bus.snoop_fanout::samples         20424741                       # Request fanout histogram
system.tol2bus.snoop_fanout::mean            0.058544                       # Request fanout histogram
system.tol2bus.snoop_fanout::stdev           0.234769                       # Request fanout histogram
system.tol2bus.snoop_fanout::underflows             0      0.00%      0.00% # Request fanout histogram
system.tol2bus.snoop_fanout::0               19229000     94.15%     94.15% # Request fanout histogram
system.tol2bus.snoop_fanout::1                1195741      5.85%    100.00% # Request fanout histogram
system.tol2bus.snoop_fanout::2                      0      0.00%    100.00% # Request fanout histogram
system.tol2bus.snoop_fanout::3                      0      0.00%    100.00% # Request fanout histogram
system.tol2bus.snoop_fanout::4                      0      0.00%    100.00% # Request fanout histogram
system.tol2bus.snoop_fanout::overflows              0      0.00%    100.00% # Request fanout histogram
system.tol2bus.snoop_fanout::min_value              0                       # Request fanout histogram
system.tol2bus.snoop_fanout::max_value              1                       # Request fanout histogram
system.tol2bus.snoop_fanout::total           20424741                       # Request fanout histogram
system.tol2bus.reqLayer0.occupancy        14871152500                       # Layer occupancy (ticks)
system.tol2bus.reqLayer0.utilization              0.9                       # Layer utilization (%)
system.tol2bus.respLayer0.occupancy           1021500                       # Layer occupancy (ticks)
system.tol2bus.respLayer0.utilization             0.0                       # Layer utilization (%)
system.tol2bus.respLayer1.occupancy       18746662500                       # Layer occupancy (ticks)
system.tol2bus.respLayer1.utilization             1.1                       # Layer utilization (%)

---------- End Simulation Statistics   ----------
