
---------- Begin Simulation Statistics ----------
sim_seconds                                  1.707877                       # Number of seconds simulated
sim_ticks                                1707876548500                       # Number of ticks simulated
final_tick                               1707876548500                       # Number of ticks from beginning of simulation (restored from checkpoints and never reset)
sim_freq                                 1000000000000                       # Frequency of simulated ticks
host_inst_rate                                  32139                       # Simulator instruction rate (inst/s)
host_op_rate                                    56327                       # Simulator op (including micro ops) rate (op/s)
host_tick_rate                              109778215                       # Simulator tick rate (ticks/s)
host_mem_usage                                 826276                       # Number of bytes of host memory used
host_seconds                                 15557.52                       # Real time elapsed on the host
sim_insts                                   500000000                       # Number of instructions simulated
sim_ops                                     876313791                       # Number of ops (including micro ops) simulated
system.voltage_domain.voltage                       1                       # Voltage in Volts
system.clk_domain.clock                          1000                       # Clock period in ticks
system.mem_ctrls.bytes_read::cpu.inst           43456                       # Number of bytes read from this memory
system.mem_ctrls.bytes_read::cpu.data       428939712                       # Number of bytes read from this memory
system.mem_ctrls.bytes_read::total          428983168                       # Number of bytes read from this memory
system.mem_ctrls.bytes_inst_read::cpu.inst        43456                       # Number of instructions bytes read from this memory
system.mem_ctrls.bytes_inst_read::total         43456                       # Number of instructions bytes read from this memory
system.mem_ctrls.bytes_written::writebacks     75296384                       # Number of bytes written to this memory
system.mem_ctrls.bytes_written::total        75296384                       # Number of bytes written to this memory
system.mem_ctrls.num_reads::cpu.inst              679                       # Number of read requests responded to by this memory
system.mem_ctrls.num_reads::cpu.data          6702183                       # Number of read requests responded to by this memory
system.mem_ctrls.num_reads::total             6702862                       # Number of read requests responded to by this memory
system.mem_ctrls.num_writes::writebacks       1176506                       # Number of write requests responded to by this memory
system.mem_ctrls.num_writes::total            1176506                       # Number of write requests responded to by this memory
system.mem_ctrls.bw_read::cpu.inst              25444                       # Total read bandwidth from this memory (bytes/s)
system.mem_ctrls.bw_read::cpu.data          251153816                       # Total read bandwidth from this memory (bytes/s)
system.mem_ctrls.bw_read::total             251179260                       # Total read bandwidth from this memory (bytes/s)
system.mem_ctrls.bw_inst_read::cpu.inst         25444                       # Instruction read bandwidth from this memory (bytes/s)
system.mem_ctrls.bw_inst_read::total            25444                       # Instruction read bandwidth from this memory (bytes/s)
system.mem_ctrls.bw_write::writebacks        44087721                       # Write bandwidth from this memory (bytes/s)
system.mem_ctrls.bw_write::total             44087721                       # Write bandwidth from this memory (bytes/s)
system.mem_ctrls.bw_total::writebacks        44087721                       # Total bandwidth to/from this memory (bytes/s)
system.mem_ctrls.bw_total::cpu.inst             25444                       # Total bandwidth to/from this memory (bytes/s)
system.mem_ctrls.bw_total::cpu.data         251153816                       # Total bandwidth to/from this memory (bytes/s)
system.mem_ctrls.bw_total::total            295266981                       # Total bandwidth to/from this memory (bytes/s)
system.mem_ctrls.readReqs                     6702862                       # Number of read requests accepted
system.mem_ctrls.writeReqs                    1176506                       # Number of write requests accepted
system.mem_ctrls.readBursts                   6702862                       # Number of DRAM read bursts, including those serviced by the write queue
system.mem_ctrls.writeBursts                  1176506                       # Number of DRAM write bursts, including those merged in the write queue
system.mem_ctrls.bytesReadDRAM              426679360                       # Total number of bytes read from DRAM
system.mem_ctrls.bytesReadWrQ                 2303808                       # Total number of bytes read from write queue
system.mem_ctrls.bytesWritten                75218432                       # Total number of bytes written to DRAM
system.mem_ctrls.bytesReadSys               428983168                       # Total read bytes from the system interface side
system.mem_ctrls.bytesWrittenSys             75296384                       # Total written bytes from the system interface side
system.mem_ctrls.servicedByWrQ                  35997                       # Number of DRAM read bursts serviced by the write queue
system.mem_ctrls.mergedWrBursts                  1194                       # Number of DRAM write bursts merged with an existing one
system.mem_ctrls.neitherReadNorWriteReqs      5509313                       # Number of requests that are neither read nor write
system.mem_ctrls.perBankRdBursts::0            427507                       # Per bank write bursts
system.mem_ctrls.perBankRdBursts::1            409505                       # Per bank write bursts
system.mem_ctrls.perBankRdBursts::2            410422                       # Per bank write bursts
system.mem_ctrls.perBankRdBursts::3            447785                       # Per bank write bursts
system.mem_ctrls.perBankRdBursts::4            410012                       # Per bank write bursts
system.mem_ctrls.perBankRdBursts::5            406285                       # Per bank write bursts
system.mem_ctrls.perBankRdBursts::6            419547                       # Per bank write bursts
system.mem_ctrls.perBankRdBursts::7            403501                       # Per bank write bursts
system.mem_ctrls.perBankRdBursts::8            407079                       # Per bank write bursts
system.mem_ctrls.perBankRdBursts::9            406758                       # Per bank write bursts
system.mem_ctrls.perBankRdBursts::10           408413                       # Per bank write bursts
system.mem_ctrls.perBankRdBursts::11           412315                       # Per bank write bursts
system.mem_ctrls.perBankRdBursts::12           424143                       # Per bank write bursts
system.mem_ctrls.perBankRdBursts::13           427974                       # Per bank write bursts
system.mem_ctrls.perBankRdBursts::14           421550                       # Per bank write bursts
system.mem_ctrls.perBankRdBursts::15           424069                       # Per bank write bursts
system.mem_ctrls.perBankWrBursts::0             73281                       # Per bank write bursts
system.mem_ctrls.perBankWrBursts::1             72811                       # Per bank write bursts
system.mem_ctrls.perBankWrBursts::2             72548                       # Per bank write bursts
system.mem_ctrls.perBankWrBursts::3             96853                       # Per bank write bursts
system.mem_ctrls.perBankWrBursts::4             78079                       # Per bank write bursts
system.mem_ctrls.perBankWrBursts::5             68169                       # Per bank write bursts
system.mem_ctrls.perBankWrBursts::6             78795                       # Per bank write bursts
system.mem_ctrls.perBankWrBursts::7             67419                       # Per bank write bursts
system.mem_ctrls.perBankWrBursts::8             68225                       # Per bank write bursts
system.mem_ctrls.perBankWrBursts::9             67276                       # Per bank write bursts
system.mem_ctrls.perBankWrBursts::10            67758                       # Per bank write bursts
system.mem_ctrls.perBankWrBursts::11            71167                       # Per bank write bursts
system.mem_ctrls.perBankWrBursts::12            73411                       # Per bank write bursts
system.mem_ctrls.perBankWrBursts::13            73559                       # Per bank write bursts
system.mem_ctrls.perBankWrBursts::14            72929                       # Per bank write bursts
system.mem_ctrls.perBankWrBursts::15            73008                       # Per bank write bursts
system.mem_ctrls.numRdRetry                         0                       # Number of times read queue was full causing retry
system.mem_ctrls.numWrRetry                         0                       # Number of times write queue was full causing retry
system.mem_ctrls.totGap                  1707872924500                       # Total gap between requests
system.mem_ctrls.readPktSize::0                     0                       # Read request sizes (log2)
system.mem_ctrls.readPktSize::1                     0                       # Read request sizes (log2)
system.mem_ctrls.readPktSize::2                     0                       # Read request sizes (log2)
system.mem_ctrls.readPktSize::3                     0                       # Read request sizes (log2)
system.mem_ctrls.readPktSize::4                     0                       # Read request sizes (log2)
system.mem_ctrls.readPktSize::5                     0                       # Read request sizes (log2)
system.mem_ctrls.readPktSize::6               6702862                       # Read request sizes (log2)
system.mem_ctrls.writePktSize::0                    0                       # Write request sizes (log2)
system.mem_ctrls.writePktSize::1                    0                       # Write request sizes (log2)
system.mem_ctrls.writePktSize::2                    0                       # Write request sizes (log2)
system.mem_ctrls.writePktSize::3                    0                       # Write request sizes (log2)
system.mem_ctrls.writePktSize::4                    0                       # Write request sizes (log2)
system.mem_ctrls.writePktSize::5                    0                       # Write request sizes (log2)
system.mem_ctrls.writePktSize::6              1176506                       # Write request sizes (log2)
system.mem_ctrls.rdQLenPdf::0                 6666865                       # What read queue length does an incoming req see
system.mem_ctrls.rdQLenPdf::1                       0                       # What read queue length does an incoming req see
system.mem_ctrls.rdQLenPdf::2                       0                       # What read queue length does an incoming req see
system.mem_ctrls.rdQLenPdf::3                       0                       # What read queue length does an incoming req see
system.mem_ctrls.rdQLenPdf::4                       0                       # What read queue length does an incoming req see
system.mem_ctrls.rdQLenPdf::5                       0                       # What read queue length does an incoming req see
system.mem_ctrls.rdQLenPdf::6                       0                       # What read queue length does an incoming req see
system.mem_ctrls.rdQLenPdf::7                       0                       # What read queue length does an incoming req see
system.mem_ctrls.rdQLenPdf::8                       0                       # What read queue length does an incoming req see
system.mem_ctrls.rdQLenPdf::9                       0                       # What read queue length does an incoming req see
system.mem_ctrls.rdQLenPdf::10                      0                       # What read queue length does an incoming req see
system.mem_ctrls.rdQLenPdf::11                      0                       # What read queue length does an incoming req see
system.mem_ctrls.rdQLenPdf::12                      0                       # What read queue length does an incoming req see
system.mem_ctrls.rdQLenPdf::13                      0                       # What read queue length does an incoming req see
system.mem_ctrls.rdQLenPdf::14                      0                       # What read queue length does an incoming req see
system.mem_ctrls.rdQLenPdf::15                      0                       # What read queue length does an incoming req see
system.mem_ctrls.rdQLenPdf::16                      0                       # What read queue length does an incoming req see
system.mem_ctrls.rdQLenPdf::17                      0                       # What read queue length does an incoming req see
system.mem_ctrls.rdQLenPdf::18                      0                       # What read queue length does an incoming req see
system.mem_ctrls.rdQLenPdf::19                      0                       # What read queue length does an incoming req see
system.mem_ctrls.rdQLenPdf::20                      0                       # What read queue length does an incoming req see
system.mem_ctrls.rdQLenPdf::21                      0                       # What read queue length does an incoming req see
system.mem_ctrls.rdQLenPdf::22                      0                       # What read queue length does an incoming req see
system.mem_ctrls.rdQLenPdf::23                      0                       # What read queue length does an incoming req see
system.mem_ctrls.rdQLenPdf::24                      0                       # What read queue length does an incoming req see
system.mem_ctrls.rdQLenPdf::25                      0                       # What read queue length does an incoming req see
system.mem_ctrls.rdQLenPdf::26                      0                       # What read queue length does an incoming req see
system.mem_ctrls.rdQLenPdf::27                      0                       # What read queue length does an incoming req see
system.mem_ctrls.rdQLenPdf::28                      0                       # What read queue length does an incoming req see
system.mem_ctrls.rdQLenPdf::29                      0                       # What read queue length does an incoming req see
system.mem_ctrls.rdQLenPdf::30                      0                       # What read queue length does an incoming req see
system.mem_ctrls.rdQLenPdf::31                      0                       # What read queue length does an incoming req see
system.mem_ctrls.wrQLenPdf::0                       1                       # What write queue length does an incoming req see
system.mem_ctrls.wrQLenPdf::1                       1                       # What write queue length does an incoming req see
system.mem_ctrls.wrQLenPdf::2                       1                       # What write queue length does an incoming req see
system.mem_ctrls.wrQLenPdf::3                       1                       # What write queue length does an incoming req see
system.mem_ctrls.wrQLenPdf::4                       1                       # What write queue length does an incoming req see
system.mem_ctrls.wrQLenPdf::5                       1                       # What write queue length does an incoming req see
system.mem_ctrls.wrQLenPdf::6                       1                       # What write queue length does an incoming req see
system.mem_ctrls.wrQLenPdf::7                       1                       # What write queue length does an incoming req see
system.mem_ctrls.wrQLenPdf::8                       1                       # What write queue length does an incoming req see
system.mem_ctrls.wrQLenPdf::9                       1                       # What write queue length does an incoming req see
system.mem_ctrls.wrQLenPdf::10                      1                       # What write queue length does an incoming req see
system.mem_ctrls.wrQLenPdf::11                      1                       # What write queue length does an incoming req see
system.mem_ctrls.wrQLenPdf::12                      1                       # What write queue length does an incoming req see
system.mem_ctrls.wrQLenPdf::13                      1                       # What write queue length does an incoming req see
system.mem_ctrls.wrQLenPdf::14                      1                       # What write queue length does an incoming req see
system.mem_ctrls.wrQLenPdf::15                  36108                       # What write queue length does an incoming req see
system.mem_ctrls.wrQLenPdf::16                  36897                       # What write queue length does an incoming req see
system.mem_ctrls.wrQLenPdf::17                  68890                       # What write queue length does an incoming req see
system.mem_ctrls.wrQLenPdf::18                  68918                       # What write queue length does an incoming req see
system.mem_ctrls.wrQLenPdf::19                  68905                       # What write queue length does an incoming req see
system.mem_ctrls.wrQLenPdf::20                  68895                       # What write queue length does an incoming req see
system.mem_ctrls.wrQLenPdf::21                  68894                       # What write queue length does an incoming req see
system.mem_ctrls.wrQLenPdf::22                  68884                       # What write queue length does an incoming req see
system.mem_ctrls.wrQLenPdf::23                  68891                       # What write queue length does an incoming req see
system.mem_ctrls.wrQLenPdf::24                  68886                       # What write queue length does an incoming req see
system.mem_ctrls.wrQLenPdf::25                  68909                       # What write queue length does an incoming req see
system.mem_ctrls.wrQLenPdf::26                  68887                       # What write queue length does an incoming req see
system.mem_ctrls.wrQLenPdf::27                  68903                       # What write queue length does an incoming req see
system.mem_ctrls.wrQLenPdf::28                  68905                       # What write queue length does an incoming req see
system.mem_ctrls.wrQLenPdf::29                  68885                       # What write queue length does an incoming req see
system.mem_ctrls.wrQLenPdf::30                  68881                       # What write queue length does an incoming req see
system.mem_ctrls.wrQLenPdf::31                  68879                       # What write queue length does an incoming req see
system.mem_ctrls.wrQLenPdf::32                  68879                       # What write queue length does an incoming req see
system.mem_ctrls.wrQLenPdf::33                      1                       # What write queue length does an incoming req see
system.mem_ctrls.wrQLenPdf::34                      0                       # What write queue length does an incoming req see
system.mem_ctrls.wrQLenPdf::35                      0                       # What write queue length does an incoming req see
system.mem_ctrls.wrQLenPdf::36                      0                       # What write queue length does an incoming req see
system.mem_ctrls.wrQLenPdf::37                      0                       # What write queue length does an incoming req see
system.mem_ctrls.wrQLenPdf::38                      0                       # What write queue length does an incoming req see
system.mem_ctrls.wrQLenPdf::39                      0                       # What write queue length does an incoming req see
system.mem_ctrls.wrQLenPdf::40                      0                       # What write queue length does an incoming req see
system.mem_ctrls.wrQLenPdf::41                      0                       # What write queue length does an incoming req see
system.mem_ctrls.wrQLenPdf::42                      0                       # What write queue length does an incoming req see
system.mem_ctrls.wrQLenPdf::43                      0                       # What write queue length does an incoming req see
system.mem_ctrls.wrQLenPdf::44                      0                       # What write queue length does an incoming req see
system.mem_ctrls.wrQLenPdf::45                      0                       # What write queue length does an incoming req see
system.mem_ctrls.wrQLenPdf::46                      0                       # What write queue length does an incoming req see
system.mem_ctrls.wrQLenPdf::47                      0                       # What write queue length does an incoming req see
system.mem_ctrls.wrQLenPdf::48                      0                       # What write queue length does an incoming req see
system.mem_ctrls.wrQLenPdf::49                      0                       # What write queue length does an incoming req see
system.mem_ctrls.wrQLenPdf::50                      0                       # What write queue length does an incoming req see
system.mem_ctrls.wrQLenPdf::51                      0                       # What write queue length does an incoming req see
system.mem_ctrls.wrQLenPdf::52                      0                       # What write queue length does an incoming req see
system.mem_ctrls.wrQLenPdf::53                      0                       # What write queue length does an incoming req see
system.mem_ctrls.wrQLenPdf::54                      0                       # What write queue length does an incoming req see
system.mem_ctrls.wrQLenPdf::55                      0                       # What write queue length does an incoming req see
system.mem_ctrls.wrQLenPdf::56                      0                       # What write queue length does an incoming req see
system.mem_ctrls.wrQLenPdf::57                      0                       # What write queue length does an incoming req see
system.mem_ctrls.wrQLenPdf::58                      0                       # What write queue length does an incoming req see
system.mem_ctrls.wrQLenPdf::59                      0                       # What write queue length does an incoming req see
system.mem_ctrls.wrQLenPdf::60                      0                       # What write queue length does an incoming req see
system.mem_ctrls.wrQLenPdf::61                      0                       # What write queue length does an incoming req see
system.mem_ctrls.wrQLenPdf::62                      0                       # What write queue length does an incoming req see
system.mem_ctrls.wrQLenPdf::63                      0                       # What write queue length does an incoming req see
system.mem_ctrls.bytesPerActivate::samples      5945598                       # Bytes accessed per row activation
system.mem_ctrls.bytesPerActivate::mean     84.415023                       # Bytes accessed per row activation
system.mem_ctrls.bytesPerActivate::gmean    71.153654                       # Bytes accessed per row activation
system.mem_ctrls.bytesPerActivate::stdev   110.097355                       # Bytes accessed per row activation
system.mem_ctrls.bytesPerActivate::0-127      5399986     90.82%     90.82% # Bytes accessed per row activation
system.mem_ctrls.bytesPerActivate::128-255       400696      6.74%     97.56% # Bytes accessed per row activation
system.mem_ctrls.bytesPerActivate::256-383        33910      0.57%     98.13% # Bytes accessed per row activation
system.mem_ctrls.bytesPerActivate::384-511        15249      0.26%     98.39% # Bytes accessed per row activation
system.mem_ctrls.bytesPerActivate::512-639        10656      0.18%     98.57% # Bytes accessed per row activation
system.mem_ctrls.bytesPerActivate::640-767        10249      0.17%     98.74% # Bytes accessed per row activation
system.mem_ctrls.bytesPerActivate::768-895        12583      0.21%     98.95% # Bytes accessed per row activation
system.mem_ctrls.bytesPerActivate::896-1023         9446      0.16%     99.11% # Bytes accessed per row activation
system.mem_ctrls.bytesPerActivate::1024-1151        52823      0.89%    100.00% # Bytes accessed per row activation
system.mem_ctrls.bytesPerActivate::total      5945598                       # Bytes accessed per row activation
system.mem_ctrls.rdPerTurnAround::samples        68879                       # Reads before turning the bus around for writes
system.mem_ctrls.rdPerTurnAround::mean      96.790662                       # Reads before turning the bus around for writes
system.mem_ctrls.rdPerTurnAround::gmean     57.134131                       # Reads before turning the bus around for writes
system.mem_ctrls.rdPerTurnAround::stdev    134.233805                       # Reads before turning the bus around for writes
system.mem_ctrls.rdPerTurnAround::0-255         61293     88.99%     88.99% # Reads before turning the bus around for writes
system.mem_ctrls.rdPerTurnAround::256-511         6997     10.16%     99.14% # Reads before turning the bus around for writes
system.mem_ctrls.rdPerTurnAround::512-767          351      0.51%     99.65% # Reads before turning the bus around for writes
system.mem_ctrls.rdPerTurnAround::768-1023          119      0.17%     99.83% # Reads before turning the bus around for writes
system.mem_ctrls.rdPerTurnAround::1024-1279           54      0.08%     99.91% # Reads before turning the bus around for writes
system.mem_ctrls.rdPerTurnAround::1280-1535           23      0.03%     99.94% # Reads before turning the bus around for writes
system.mem_ctrls.rdPerTurnAround::1536-1791           14      0.02%     99.96% # Reads before turning the bus around for writes
system.mem_ctrls.rdPerTurnAround::1792-2047            7      0.01%     99.97% # Reads before turning the bus around for writes
system.mem_ctrls.rdPerTurnAround::2048-2303            9      0.01%     99.98% # Reads before turning the bus around for writes
system.mem_ctrls.rdPerTurnAround::2304-2559            3      0.00%     99.99% # Reads before turning the bus around for writes
system.mem_ctrls.rdPerTurnAround::2560-2815            1      0.00%     99.99% # Reads before turning the bus around for writes
system.mem_ctrls.rdPerTurnAround::2816-3071            1      0.00%     99.99% # Reads before turning the bus around for writes
system.mem_ctrls.rdPerTurnAround::3072-3327            1      0.00%     99.99% # Reads before turning the bus around for writes
system.mem_ctrls.rdPerTurnAround::3328-3583            1      0.00%     99.99% # Reads before turning the bus around for writes
system.mem_ctrls.rdPerTurnAround::3840-4095            1      0.00%     99.99% # Reads before turning the bus around for writes
system.mem_ctrls.rdPerTurnAround::4864-5119            1      0.00%    100.00% # Reads before turning the bus around for writes
system.mem_ctrls.rdPerTurnAround::5120-5375            2      0.00%    100.00% # Reads before turning the bus around for writes
system.mem_ctrls.rdPerTurnAround::6144-6399            1      0.00%    100.00% # Reads before turning the bus around for writes
system.mem_ctrls.rdPerTurnAround::total         68879                       # Reads before turning the bus around for writes
system.mem_ctrls.wrPerTurnAround::samples        68879                       # Writes before turning the bus around for reads
system.mem_ctrls.wrPerTurnAround::mean      17.063082                       # Writes before turning the bus around for reads
system.mem_ctrls.wrPerTurnAround::gmean     17.033814                       # Writes before turning the bus around for reads
system.mem_ctrls.wrPerTurnAround::stdev      0.996837                       # Writes before turning the bus around for reads
system.mem_ctrls.wrPerTurnAround::16            31980     46.43%     46.43% # Writes before turning the bus around for reads
system.mem_ctrls.wrPerTurnAround::17              780      1.13%     47.56% # Writes before turning the bus around for reads
system.mem_ctrls.wrPerTurnAround::18            35913     52.14%     99.70% # Writes before turning the bus around for reads
system.mem_ctrls.wrPerTurnAround::19              206      0.30%    100.00% # Writes before turning the bus around for reads
system.mem_ctrls.wrPerTurnAround::total         68879                       # Writes before turning the bus around for reads
system.mem_ctrls.totQLat                 152345283000                       # Total ticks spent queuing
system.mem_ctrls.totMemAccLat            277349001750                       # Total ticks spent from burst creation until serviced by the DRAM
system.mem_ctrls.totBusLat                33334325000                       # Total ticks spent in databus transfers
system.mem_ctrls.avgQLat                     22851.11                       # Average queueing delay per DRAM burst
system.mem_ctrls.avgBusLat                    5000.00                       # Average bus latency per DRAM burst
system.mem_ctrls.avgMemAccLat                41601.11                       # Average memory access latency per DRAM burst
system.mem_ctrls.avgRdBW                       249.83                       # Average DRAM read bandwidth in MiByte/s
system.mem_ctrls.avgWrBW                        44.04                       # Average achieved write bandwidth in MiByte/s
system.mem_ctrls.avgRdBWSys                    251.18                       # Average system read bandwidth in MiByte/s
system.mem_ctrls.avgWrBWSys                     44.09                       # Average system write bandwidth in MiByte/s
system.mem_ctrls.peakBW                      12800.00                       # Theoretical peak bandwidth in MiByte/s
system.mem_ctrls.busUtil                         2.30                       # Data bus utilization in percentage
system.mem_ctrls.busUtilRead                     1.95                       # Data bus utilization in percentage for reads
system.mem_ctrls.busUtilWrite                    0.34                       # Data bus utilization in percentage for writes
system.mem_ctrls.avgRdQLen                       1.00                       # Average read queue length when enqueuing
system.mem_ctrls.avgWrQLen                      24.81                       # Average write queue length when enqueuing
system.mem_ctrls.readRowHits                  1345202                       # Number of row buffer hits during reads
system.mem_ctrls.writeRowHits                  551353                       # Number of row buffer hits during writes
system.mem_ctrls.readRowHitRate                 20.18                       # Row buffer hit rate for reads
system.mem_ctrls.writeRowHitRate                46.91                       # Row buffer hit rate for writes
system.mem_ctrls.avgGap                     216752.53                       # Average gap between requests
system.mem_ctrls.pageHitRate                    24.18                       # Row buffer hit rate, read and write combined
system.mem_ctrls_0.actEnergy              22563054360                       # Energy for activate commands per rank (pJ)
system.mem_ctrls_0.preEnergy              12311190375                       # Energy for precharge commands per rank (pJ)
system.mem_ctrls_0.readEnergy             26009599200                       # Energy for read commands per rank (pJ)
system.mem_ctrls_0.writeEnergy             3939548400                       # Energy for write commands per rank (pJ)
system.mem_ctrls_0.refreshEnergy         111550093200                       # Energy for refresh commands per rank (pJ)
system.mem_ctrls_0.actBackEnergy         902986843365                       # Energy for active background per rank (pJ)
system.mem_ctrls_0.preBackEnergy         232631429250                       # Energy for precharge background per rank (pJ)
system.mem_ctrls_0.totalEnergy           1311991758150                       # Total energy per rank (pJ)
system.mem_ctrls_0.averagePower            768.201165                       # Core power per rank (mW)
system.mem_ctrls_0.memoryStateTime::IDLE 381547442250                       # Time in different power states
system.mem_ctrls_0.memoryStateTime::REF   57029700000                       # Time in different power states
system.mem_ctrls_0.memoryStateTime::PRE_PDN            0                       # Time in different power states
system.mem_ctrls_0.memoryStateTime::ACT  1269298124000                       # Time in different power states
system.mem_ctrls_0.memoryStateTime::ACT_PDN            0                       # Time in different power states
system.mem_ctrls_1.actEnergy              22385666520                       # Energy for activate commands per rank (pJ)
system.mem_ctrls_1.preEnergy              12214401375                       # Energy for precharge commands per rank (pJ)
system.mem_ctrls_1.readEnergy             25991947800                       # Energy for read commands per rank (pJ)
system.mem_ctrls_1.writeEnergy             3676317840                       # Energy for write commands per rank (pJ)
system.mem_ctrls_1.refreshEnergy         111550093200                       # Energy for refresh commands per rank (pJ)
system.mem_ctrls_1.actBackEnergy         887067238410                       # Energy for active background per rank (pJ)
system.mem_ctrls_1.preBackEnergy         246595995000                       # Energy for precharge background per rank (pJ)
system.mem_ctrls_1.totalEnergy           1309481660145                       # Total energy per rank (pJ)
system.mem_ctrls_1.averagePower            766.731445                       # Core power per rank (mW)
system.mem_ctrls_1.memoryStateTime::IDLE 404531509000                       # Time in different power states
system.mem_ctrls_1.memoryStateTime::REF   57029700000                       # Time in different power states
system.mem_ctrls_1.memoryStateTime::PRE_PDN            0                       # Time in different power states
system.mem_ctrls_1.memoryStateTime::ACT  1246314057250                       # Time in different power states
system.mem_ctrls_1.memoryStateTime::ACT_PDN            0                       # Time in different power states
system.cpu_voltage_domain.voltage                   1                       # Voltage in Volts
system.cpu_clk_domain.clock                       500                       # Clock period in ticks
system.cpu.apic_clk_domain.clock                 8000                       # Clock period in ticks
system.cpu.workload.num_syscalls                  168                       # Number of system calls
system.cpu.numCycles                       3415753097                       # number of cpu cycles simulated
system.cpu.numWorkItemsStarted                      0                       # number of work items this cpu started
system.cpu.numWorkItemsCompleted                    0                       # number of work items this cpu completed
system.cpu.committedInsts                   500000000                       # Number of instructions committed
system.cpu.committedOps                     876313791                       # Number of ops (including micro ops) committed
system.cpu.num_int_alu_accesses             872966650                       # Number of integer alu accesses
system.cpu.num_fp_alu_accesses                2882295                       # Number of float alu accesses
system.cpu.num_func_calls                    11025254                       # number of times a function call or return occured
system.cpu.num_conditional_control_insts     75981001                       # number of instructions that are conditional controls
system.cpu.num_int_insts                    872966650                       # number of integer instructions
system.cpu.num_fp_insts                       2882295                       # number of float instructions
system.cpu.num_int_register_reads          1835046799                       # number of times the integer registers were read
system.cpu.num_int_register_writes          703076403                       # number of times the integer registers were written
system.cpu.num_fp_register_reads              4386181                       # number of times the floating registers were read
system.cpu.num_fp_register_writes             2464451                       # number of times the floating registers were written
system.cpu.num_cc_register_reads            441654653                       # number of times the CC registers were read
system.cpu.num_cc_register_writes           253505530                       # number of times the CC registers were written
system.cpu.num_mem_refs                     293763540                       # number of memory refs
system.cpu.num_load_insts                   221284996                       # Number of load instructions
system.cpu.num_store_insts                   72478544                       # Number of store instructions
system.cpu.num_idle_cycles                          0                       # Number of idle cycles
system.cpu.num_busy_cycles                 3415753097                       # Number of busy cycles
system.cpu.not_idle_fraction                        1                       # Percentage of non-idle cycles
system.cpu.idle_fraction                            0                       # Percentage of idle cycles
system.cpu.Branches                          97900991                       # Number of branches fetched
system.cpu.op_class::No_OpClass                939429      0.11%      0.11% # Class of executed instruction
system.cpu.op_class::IntAlu                 578420275     66.01%     66.11% # Class of executed instruction
system.cpu.op_class::IntMult                   907073      0.10%     66.22% # Class of executed instruction
system.cpu.op_class::IntDiv                        42      0.00%     66.22% # Class of executed instruction
system.cpu.op_class::FloatAdd                 2283432      0.26%     66.48% # Class of executed instruction
system.cpu.op_class::FloatCmp                       0      0.00%     66.48% # Class of executed instruction
system.cpu.op_class::FloatCvt                       0      0.00%     66.48% # Class of executed instruction
system.cpu.op_class::FloatMult                      0      0.00%     66.48% # Class of executed instruction
system.cpu.op_class::FloatDiv                       0      0.00%     66.48% # Class of executed instruction
system.cpu.op_class::FloatSqrt                      0      0.00%     66.48% # Class of executed instruction
system.cpu.op_class::SimdAdd                        0      0.00%     66.48% # Class of executed instruction
system.cpu.op_class::SimdAddAcc                     0      0.00%     66.48% # Class of executed instruction
system.cpu.op_class::SimdAlu                        0      0.00%     66.48% # Class of executed instruction
system.cpu.op_class::SimdCmp                        0      0.00%     66.48% # Class of executed instruction
system.cpu.op_class::SimdCvt                        0      0.00%     66.48% # Class of executed instruction
system.cpu.op_class::SimdMisc                       0      0.00%     66.48% # Class of executed instruction
system.cpu.op_class::SimdMult                       0      0.00%     66.48% # Class of executed instruction
system.cpu.op_class::SimdMultAcc                    0      0.00%     66.48% # Class of executed instruction
system.cpu.op_class::SimdShift                      0      0.00%     66.48% # Class of executed instruction
system.cpu.op_class::SimdShiftAcc                   0      0.00%     66.48% # Class of executed instruction
system.cpu.op_class::SimdSqrt                       0      0.00%     66.48% # Class of executed instruction
system.cpu.op_class::SimdFloatAdd                   0      0.00%     66.48% # Class of executed instruction
system.cpu.op_class::SimdFloatAlu                   0      0.00%     66.48% # Class of executed instruction
system.cpu.op_class::SimdFloatCmp                   0      0.00%     66.48% # Class of executed instruction
system.cpu.op_class::SimdFloatCvt                   0      0.00%     66.48% # Class of executed instruction
system.cpu.op_class::SimdFloatDiv                   0      0.00%     66.48% # Class of executed instruction
system.cpu.op_class::SimdFloatMisc                  0      0.00%     66.48% # Class of executed instruction
system.cpu.op_class::SimdFloatMult                  0      0.00%     66.48% # Class of executed instruction
system.cpu.op_class::SimdFloatMultAcc               0      0.00%     66.48% # Class of executed instruction
system.cpu.op_class::SimdFloatSqrt                  0      0.00%     66.48% # Class of executed instruction
system.cpu.op_class::MemRead                221284996     25.25%     91.73% # Class of executed instruction
system.cpu.op_class::MemWrite                72478544      8.27%    100.00% # Class of executed instruction
system.cpu.op_class::IprAccess                      0      0.00%    100.00% # Class of executed instruction
system.cpu.op_class::InstPrefetch                   0      0.00%    100.00% # Class of executed instruction
system.cpu.op_class::total                  876313791                       # Class of executed instruction
system.cpu.dcache.tags.replacements          16208619                       # number of replacements
system.cpu.dcache.tags.tagsinuse           255.988432                       # Cycle average of tags in use
system.cpu.dcache.tags.total_refs           277574858                       # Total number of references to valid blocks.
system.cpu.dcache.tags.sampled_refs          16208875                       # Sample count of references to valid blocks.
system.cpu.dcache.tags.avg_refs             17.124869                       # Average number of references to valid blocks.
system.cpu.dcache.tags.warmup_cycle         340220500                       # Cycle when the warmup percentage was hit.
system.cpu.dcache.tags.occ_blocks::cpu.data   255.988432                       # Average occupied blocks per requestor
system.cpu.dcache.tags.occ_percent::cpu.data     0.999955                       # Average percentage of cache occupancy
system.cpu.dcache.tags.occ_percent::total     0.999955                       # Average percentage of cache occupancy
system.cpu.dcache.tags.occ_task_id_blocks::1024          256                       # Occupied blocks per task id
system.cpu.dcache.tags.age_task_id_blocks_1024::0            5                       # Occupied blocks per task id
system.cpu.dcache.tags.age_task_id_blocks_1024::1          240                       # Occupied blocks per task id
system.cpu.dcache.tags.age_task_id_blocks_1024::2           11                       # Occupied blocks per task id
system.cpu.dcache.tags.occ_task_id_percent::1024            1                       # Percentage of cache occupancy per task id
system.cpu.dcache.tags.tag_accesses         603776341                       # Number of tag accesses
system.cpu.dcache.tags.data_accesses        603776341                       # Number of data accesses
system.cpu.dcache.ReadReq_hits::cpu.data    206239091                       # number of ReadReq hits
system.cpu.dcache.ReadReq_hits::total       206239091                       # number of ReadReq hits
system.cpu.dcache.WriteReq_hits::cpu.data     71335767                       # number of WriteReq hits
system.cpu.dcache.WriteReq_hits::total       71335767                       # number of WriteReq hits
system.cpu.dcache.demand_hits::cpu.data     277574858                       # number of demand (read+write) hits
system.cpu.dcache.demand_hits::total        277574858                       # number of demand (read+write) hits
system.cpu.dcache.overall_hits::cpu.data    277574858                       # number of overall hits
system.cpu.dcache.overall_hits::total       277574858                       # number of overall hits
system.cpu.dcache.ReadReq_misses::cpu.data     15060034                       # number of ReadReq misses
system.cpu.dcache.ReadReq_misses::total      15060034                       # number of ReadReq misses
system.cpu.dcache.WriteReq_misses::cpu.data      1148841                       # number of WriteReq misses
system.cpu.dcache.WriteReq_misses::total      1148841                       # number of WriteReq misses
system.cpu.dcache.demand_misses::cpu.data     16208875                       # number of demand (read+write) misses
system.cpu.dcache.demand_misses::total       16208875                       # number of demand (read+write) misses
system.cpu.dcache.overall_misses::cpu.data     16208875                       # number of overall misses
system.cpu.dcache.overall_misses::total      16208875                       # number of overall misses
system.cpu.dcache.ReadReq_miss_latency::cpu.data 722534746000                       # number of ReadReq miss cycles
system.cpu.dcache.ReadReq_miss_latency::total 722534746000                       # number of ReadReq miss cycles
system.cpu.dcache.WriteReq_miss_latency::cpu.data  30405049000                       # number of WriteReq miss cycles
system.cpu.dcache.WriteReq_miss_latency::total  30405049000                       # number of WriteReq miss cycles
system.cpu.dcache.demand_miss_latency::cpu.data 752939795000                       # number of demand (read+write) miss cycles
system.cpu.dcache.demand_miss_latency::total 752939795000                       # number of demand (read+write) miss cycles
system.cpu.dcache.overall_miss_latency::cpu.data 752939795000                       # number of overall miss cycles
system.cpu.dcache.overall_miss_latency::total 752939795000                       # number of overall miss cycles
system.cpu.dcache.ReadReq_accesses::cpu.data    221299125                       # number of ReadReq accesses(hits+misses)
system.cpu.dcache.ReadReq_accesses::total    221299125                       # number of ReadReq accesses(hits+misses)
system.cpu.dcache.WriteReq_accesses::cpu.data     72484608                       # number of WriteReq accesses(hits+misses)
system.cpu.dcache.WriteReq_accesses::total     72484608                       # number of WriteReq accesses(hits+misses)
system.cpu.dcache.demand_accesses::cpu.data    293783733                       # number of demand (read+write) accesses
system.cpu.dcache.demand_accesses::total    293783733                       # number of demand (read+write) accesses
system.cpu.dcache.overall_accesses::cpu.data    293783733                       # number of overall (read+write) accesses
system.cpu.dcache.overall_accesses::total    293783733                       # number of overall (read+write) accesses
system.cpu.dcache.ReadReq_miss_rate::cpu.data     0.068053                       # miss rate for ReadReq accesses
system.cpu.dcache.ReadReq_miss_rate::total     0.068053                       # miss rate for ReadReq accesses
system.cpu.dcache.WriteReq_miss_rate::cpu.data     0.015849                       # miss rate for WriteReq accesses
system.cpu.dcache.WriteReq_miss_rate::total     0.015849                       # miss rate for WriteReq accesses
system.cpu.dcache.demand_miss_rate::cpu.data     0.055173                       # miss rate for demand accesses
system.cpu.dcache.demand_miss_rate::total     0.055173                       # miss rate for demand accesses
system.cpu.dcache.overall_miss_rate::cpu.data     0.055173                       # miss rate for overall accesses
system.cpu.dcache.overall_miss_rate::total     0.055173                       # miss rate for overall accesses
system.cpu.dcache.ReadReq_avg_miss_latency::cpu.data 47976.966453                       # average ReadReq miss latency
system.cpu.dcache.ReadReq_avg_miss_latency::total 47976.966453                       # average ReadReq miss latency
system.cpu.dcache.WriteReq_avg_miss_latency::cpu.data 26465.846014                       # average WriteReq miss latency
system.cpu.dcache.WriteReq_avg_miss_latency::total 26465.846014                       # average WriteReq miss latency
system.cpu.dcache.demand_avg_miss_latency::cpu.data 46452.316709                       # average overall miss latency
system.cpu.dcache.demand_avg_miss_latency::total 46452.316709                       # average overall miss latency
system.cpu.dcache.overall_avg_miss_latency::cpu.data 46452.316709                       # average overall miss latency
system.cpu.dcache.overall_avg_miss_latency::total 46452.316709                       # average overall miss latency
system.cpu.dcache.blocked_cycles::no_mshrs            0                       # number of cycles access was blocked
system.cpu.dcache.blocked_cycles::no_targets            0                       # number of cycles access was blocked
system.cpu.dcache.blocked::no_mshrs                 0                       # number of cycles access was blocked
system.cpu.dcache.blocked::no_targets               0                       # number of cycles access was blocked
system.cpu.dcache.avg_blocked_cycles::no_mshrs          nan                       # average number of cycles each access was blocked
system.cpu.dcache.avg_blocked_cycles::no_targets          nan                       # average number of cycles each access was blocked
system.cpu.dcache.fast_writes                       0                       # number of fast writes performed
system.cpu.dcache.cache_copies                      0                       # number of cache copies performed
system.cpu.dcache.writebacks::writebacks      5212901                       # number of writebacks
system.cpu.dcache.writebacks::total           5212901                       # number of writebacks
system.cpu.dcache.ReadReq_mshr_misses::cpu.data     15060034                       # number of ReadReq MSHR misses
system.cpu.dcache.ReadReq_mshr_misses::total     15060034                       # number of ReadReq MSHR misses
system.cpu.dcache.WriteReq_mshr_misses::cpu.data      1148841                       # number of WriteReq MSHR misses
system.cpu.dcache.WriteReq_mshr_misses::total      1148841                       # number of WriteReq MSHR misses
system.cpu.dcache.demand_mshr_misses::cpu.data     16208875                       # number of demand (read+write) MSHR misses
system.cpu.dcache.demand_mshr_misses::total     16208875                       # number of demand (read+write) MSHR misses
system.cpu.dcache.overall_mshr_misses::cpu.data     16208875                       # number of overall MSHR misses
system.cpu.dcache.overall_mshr_misses::total     16208875                       # number of overall MSHR misses
system.cpu.dcache.ReadReq_mshr_miss_latency::cpu.data 707474712000                       # number of ReadReq MSHR miss cycles
system.cpu.dcache.ReadReq_mshr_miss_latency::total 707474712000                       # number of ReadReq MSHR miss cycles
system.cpu.dcache.WriteReq_mshr_miss_latency::cpu.data  29256208000                       # number of WriteReq MSHR miss cycles
system.cpu.dcache.WriteReq_mshr_miss_latency::total  29256208000                       # number of WriteReq MSHR miss cycles
system.cpu.dcache.demand_mshr_miss_latency::cpu.data 736730920000                       # number of demand (read+write) MSHR miss cycles
system.cpu.dcache.demand_mshr_miss_latency::total 736730920000                       # number of demand (read+write) MSHR miss cycles
system.cpu.dcache.overall_mshr_miss_latency::cpu.data 736730920000                       # number of overall MSHR miss cycles
system.cpu.dcache.overall_mshr_miss_latency::total 736730920000                       # number of overall MSHR miss cycles
system.cpu.dcache.ReadReq_mshr_miss_rate::cpu.data     0.068053                       # mshr miss rate for ReadReq accesses
system.cpu.dcache.ReadReq_mshr_miss_rate::total     0.068053                       # mshr miss rate for ReadReq accesses
system.cpu.dcache.WriteReq_mshr_miss_rate::cpu.data     0.015849                       # mshr miss rate for WriteReq accesses
system.cpu.dcache.WriteReq_mshr_miss_rate::total     0.015849                       # mshr miss rate for WriteReq accesses
system.cpu.dcache.demand_mshr_miss_rate::cpu.data     0.055173                       # mshr miss rate for demand accesses
system.cpu.dcache.demand_mshr_miss_rate::total     0.055173                       # mshr miss rate for demand accesses
system.cpu.dcache.overall_mshr_miss_rate::cpu.data     0.055173                       # mshr miss rate for overall accesses
system.cpu.dcache.overall_mshr_miss_rate::total     0.055173                       # mshr miss rate for overall accesses
system.cpu.dcache.ReadReq_avg_mshr_miss_latency::cpu.data 46976.966453                       # average ReadReq mshr miss latency
system.cpu.dcache.ReadReq_avg_mshr_miss_latency::total 46976.966453                       # average ReadReq mshr miss latency
system.cpu.dcache.WriteReq_avg_mshr_miss_latency::cpu.data 25465.846014                       # average WriteReq mshr miss latency
system.cpu.dcache.WriteReq_avg_mshr_miss_latency::total 25465.846014                       # average WriteReq mshr miss latency
system.cpu.dcache.demand_avg_mshr_miss_latency::cpu.data 45452.316709                       # average overall mshr miss latency
system.cpu.dcache.demand_avg_mshr_miss_latency::total 45452.316709                       # average overall mshr miss latency
system.cpu.dcache.overall_avg_mshr_miss_latency::cpu.data 45452.316709                       # average overall mshr miss latency
system.cpu.dcache.overall_avg_mshr_miss_latency::total 45452.316709                       # average overall mshr miss latency
system.cpu.dcache.no_allocate_misses                0                       # Number of misses that were no-allocate
system.cpu.dtb_walker_cache.tags.replacements            0                       # number of replacements
system.cpu.dtb_walker_cache.tags.tagsinuse            0                       # Cycle average of tags in use
system.cpu.dtb_walker_cache.tags.total_refs            0                       # Total number of references to valid blocks.
system.cpu.dtb_walker_cache.tags.sampled_refs            0                       # Sample count of references to valid blocks.
system.cpu.dtb_walker_cache.tags.avg_refs          nan                       # Average number of references to valid blocks.
system.cpu.dtb_walker_cache.tags.warmup_cycle            0                       # Cycle when the warmup percentage was hit.
system.cpu.dtb_walker_cache.tags.tag_accesses            0                       # Number of tag accesses
system.cpu.dtb_walker_cache.tags.data_accesses            0                       # Number of data accesses
system.cpu.dtb_walker_cache.blocked_cycles::no_mshrs            0                       # number of cycles access was blocked
system.cpu.dtb_walker_cache.blocked_cycles::no_targets            0                       # number of cycles access was blocked
system.cpu.dtb_walker_cache.blocked::no_mshrs            0                       # number of cycles access was blocked
system.cpu.dtb_walker_cache.blocked::no_targets            0                       # number of cycles access was blocked
system.cpu.dtb_walker_cache.avg_blocked_cycles::no_mshrs          nan                       # average number of cycles each access was blocked
system.cpu.dtb_walker_cache.avg_blocked_cycles::no_targets          nan                       # average number of cycles each access was blocked
system.cpu.dtb_walker_cache.fast_writes             0                       # number of fast writes performed
system.cpu.dtb_walker_cache.cache_copies            0                       # number of cache copies performed
system.cpu.dtb_walker_cache.no_allocate_misses            0                       # Number of misses that were no-allocate
system.cpu.icache.tags.replacements                23                       # number of replacements
system.cpu.icache.tags.tagsinuse           621.908258                       # Cycle average of tags in use
system.cpu.icache.tags.total_refs           677317254                       # Total number of references to valid blocks.
system.cpu.icache.tags.sampled_refs               680                       # Sample count of references to valid blocks.
system.cpu.icache.tags.avg_refs          996054.785294                       # Average number of references to valid blocks.
system.cpu.icache.tags.warmup_cycle                 0                       # Cycle when the warmup percentage was hit.
system.cpu.icache.tags.occ_blocks::cpu.inst   621.908258                       # Average occupied blocks per requestor
system.cpu.icache.tags.occ_percent::cpu.inst     0.303666                       # Average percentage of cache occupancy
system.cpu.icache.tags.occ_percent::total     0.303666                       # Average percentage of cache occupancy
system.cpu.icache.tags.occ_task_id_blocks::1024          657                       # Occupied blocks per task id
system.cpu.icache.tags.age_task_id_blocks_1024::4          657                       # Occupied blocks per task id
system.cpu.icache.tags.occ_task_id_percent::1024     0.320801                       # Percentage of cache occupancy per task id
system.cpu.icache.tags.tag_accesses        1354636548                       # Number of tag accesses
system.cpu.icache.tags.data_accesses       1354636548                       # Number of data accesses
system.cpu.icache.ReadReq_hits::cpu.inst    677317254                       # number of ReadReq hits
system.cpu.icache.ReadReq_hits::total       677317254                       # number of ReadReq hits
system.cpu.icache.demand_hits::cpu.inst     677317254                       # number of demand (read+write) hits
system.cpu.icache.demand_hits::total        677317254                       # number of demand (read+write) hits
system.cpu.icache.overall_hits::cpu.inst    677317254                       # number of overall hits
system.cpu.icache.overall_hits::total       677317254                       # number of overall hits
system.cpu.icache.ReadReq_misses::cpu.inst          680                       # number of ReadReq misses
system.cpu.icache.ReadReq_misses::total           680                       # number of ReadReq misses
system.cpu.icache.demand_misses::cpu.inst          680                       # number of demand (read+write) misses
system.cpu.icache.demand_misses::total            680                       # number of demand (read+write) misses
system.cpu.icache.overall_misses::cpu.inst          680                       # number of overall misses
system.cpu.icache.overall_misses::total           680                       # number of overall misses
system.cpu.icache.ReadReq_miss_latency::cpu.inst     54851000                       # number of ReadReq miss cycles
system.cpu.icache.ReadReq_miss_latency::total     54851000                       # number of ReadReq miss cycles
system.cpu.icache.demand_miss_latency::cpu.inst     54851000                       # number of demand (read+write) miss cycles
system.cpu.icache.demand_miss_latency::total     54851000                       # number of demand (read+write) miss cycles
system.cpu.icache.overall_miss_latency::cpu.inst     54851000                       # number of overall miss cycles
system.cpu.icache.overall_miss_latency::total     54851000                       # number of overall miss cycles
system.cpu.icache.ReadReq_accesses::cpu.inst    677317934                       # number of ReadReq accesses(hits+misses)
system.cpu.icache.ReadReq_accesses::total    677317934                       # number of ReadReq accesses(hits+misses)
system.cpu.icache.demand_accesses::cpu.inst    677317934                       # number of demand (read+write) accesses
system.cpu.icache.demand_accesses::total    677317934                       # number of demand (read+write) accesses
system.cpu.icache.overall_accesses::cpu.inst    677317934                       # number of overall (read+write) accesses
system.cpu.icache.overall_accesses::total    677317934                       # number of overall (read+write) accesses
system.cpu.icache.ReadReq_miss_rate::cpu.inst     0.000001                       # miss rate for ReadReq accesses
system.cpu.icache.ReadReq_miss_rate::total     0.000001                       # miss rate for ReadReq accesses
system.cpu.icache.demand_miss_rate::cpu.inst     0.000001                       # miss rate for demand accesses
system.cpu.icache.demand_miss_rate::total     0.000001                       # miss rate for demand accesses
system.cpu.icache.overall_miss_rate::cpu.inst     0.000001                       # miss rate for overall accesses
system.cpu.icache.overall_miss_rate::total     0.000001                       # miss rate for overall accesses
system.cpu.icache.ReadReq_avg_miss_latency::cpu.inst 80663.235294                       # average ReadReq miss latency
system.cpu.icache.ReadReq_avg_miss_latency::total 80663.235294                       # average ReadReq miss latency
system.cpu.icache.demand_avg_miss_latency::cpu.inst 80663.235294                       # average overall miss latency
system.cpu.icache.demand_avg_miss_latency::total 80663.235294                       # average overall miss latency
system.cpu.icache.overall_avg_miss_latency::cpu.inst 80663.235294                       # average overall miss latency
system.cpu.icache.overall_avg_miss_latency::total 80663.235294                       # average overall miss latency
system.cpu.icache.blocked_cycles::no_mshrs            0                       # number of cycles access was blocked
system.cpu.icache.blocked_cycles::no_targets            0                       # number of cycles access was blocked
system.cpu.icache.blocked::no_mshrs                 0                       # number of cycles access was blocked
system.cpu.icache.blocked::no_targets               0                       # number of cycles access was blocked
system.cpu.icache.avg_blocked_cycles::no_mshrs          nan                       # average number of cycles each access was blocked
system.cpu.icache.avg_blocked_cycles::no_targets          nan                       # average number of cycles each access was blocked
system.cpu.icache.fast_writes                       0                       # number of fast writes performed
system.cpu.icache.cache_copies                      0                       # number of cache copies performed
system.cpu.icache.writebacks::writebacks           23                       # number of writebacks
system.cpu.icache.writebacks::total                23                       # number of writebacks
system.cpu.icache.ReadReq_mshr_misses::cpu.inst          680                       # number of ReadReq MSHR misses
system.cpu.icache.ReadReq_mshr_misses::total          680                       # number of ReadReq MSHR misses
system.cpu.icache.demand_mshr_misses::cpu.inst          680                       # number of demand (read+write) MSHR misses
system.cpu.icache.demand_mshr_misses::total          680                       # number of demand (read+write) MSHR misses
system.cpu.icache.overall_mshr_misses::cpu.inst          680                       # number of overall MSHR misses
system.cpu.icache.overall_mshr_misses::total          680                       # number of overall MSHR misses
system.cpu.icache.ReadReq_mshr_miss_latency::cpu.inst     54171000                       # number of ReadReq MSHR miss cycles
system.cpu.icache.ReadReq_mshr_miss_latency::total     54171000                       # number of ReadReq MSHR miss cycles
system.cpu.icache.demand_mshr_miss_latency::cpu.inst     54171000                       # number of demand (read+write) MSHR miss cycles
system.cpu.icache.demand_mshr_miss_latency::total     54171000                       # number of demand (read+write) MSHR miss cycles
system.cpu.icache.overall_mshr_miss_latency::cpu.inst     54171000                       # number of overall MSHR miss cycles
system.cpu.icache.overall_mshr_miss_latency::total     54171000                       # number of overall MSHR miss cycles
system.cpu.icache.ReadReq_mshr_miss_rate::cpu.inst     0.000001                       # mshr miss rate for ReadReq accesses
system.cpu.icache.ReadReq_mshr_miss_rate::total     0.000001                       # mshr miss rate for ReadReq accesses
system.cpu.icache.demand_mshr_miss_rate::cpu.inst     0.000001                       # mshr miss rate for demand accesses
system.cpu.icache.demand_mshr_miss_rate::total     0.000001                       # mshr miss rate for demand accesses
system.cpu.icache.overall_mshr_miss_rate::cpu.inst     0.000001                       # mshr miss rate for overall accesses
system.cpu.icache.overall_mshr_miss_rate::total     0.000001                       # mshr miss rate for overall accesses
system.cpu.icache.ReadReq_avg_mshr_miss_latency::cpu.inst 79663.235294                       # average ReadReq mshr miss latency
system.cpu.icache.ReadReq_avg_mshr_miss_latency::total 79663.235294                       # average ReadReq mshr miss latency
system.cpu.icache.demand_avg_mshr_miss_latency::cpu.inst 79663.235294                       # average overall mshr miss latency
system.cpu.icache.demand_avg_mshr_miss_latency::total 79663.235294                       # average overall mshr miss latency
system.cpu.icache.overall_avg_mshr_miss_latency::cpu.inst 79663.235294                       # average overall mshr miss latency
system.cpu.icache.overall_avg_mshr_miss_latency::total 79663.235294                       # average overall mshr miss latency
system.cpu.icache.no_allocate_misses                0                       # Number of misses that were no-allocate
system.cpu.itb_walker_cache.tags.replacements            0                       # number of replacements
system.cpu.itb_walker_cache.tags.tagsinuse            0                       # Cycle average of tags in use
system.cpu.itb_walker_cache.tags.total_refs            0                       # Total number of references to valid blocks.
system.cpu.itb_walker_cache.tags.sampled_refs            0                       # Sample count of references to valid blocks.
system.cpu.itb_walker_cache.tags.avg_refs          nan                       # Average number of references to valid blocks.
system.cpu.itb_walker_cache.tags.warmup_cycle            0                       # Cycle when the warmup percentage was hit.
system.cpu.itb_walker_cache.tags.tag_accesses            0                       # Number of tag accesses
system.cpu.itb_walker_cache.tags.data_accesses            0                       # Number of data accesses
system.cpu.itb_walker_cache.blocked_cycles::no_mshrs            0                       # number of cycles access was blocked
system.cpu.itb_walker_cache.blocked_cycles::no_targets            0                       # number of cycles access was blocked
system.cpu.itb_walker_cache.blocked::no_mshrs            0                       # number of cycles access was blocked
system.cpu.itb_walker_cache.blocked::no_targets            0                       # number of cycles access was blocked
system.cpu.itb_walker_cache.avg_blocked_cycles::no_mshrs          nan                       # average number of cycles each access was blocked
system.cpu.itb_walker_cache.avg_blocked_cycles::no_targets          nan                       # average number of cycles each access was blocked
system.cpu.itb_walker_cache.fast_writes             0                       # number of fast writes performed
system.cpu.itb_walker_cache.cache_copies            0                       # number of cache copies performed
system.cpu.itb_walker_cache.no_allocate_misses            0                       # Number of misses that were no-allocate
system.l2.tags.replacements                   6722661                       # number of replacements
system.l2.tags.tagsinuse                 16281.593120                       # Cycle average of tags in use
system.l2.tags.total_refs                    24386405                       # Total number of references to valid blocks.
system.l2.tags.sampled_refs                   6739013                       # Sample count of references to valid blocks.
system.l2.tags.avg_refs                      3.618691                       # Average number of references to valid blocks.
system.l2.tags.warmup_cycle              331271626500                       # Cycle when the warmup percentage was hit.
system.l2.tags.occ_blocks::writebacks     3047.169606                       # Average occupied blocks per requestor
system.l2.tags.occ_blocks::cpu.inst          1.588549                       # Average occupied blocks per requestor
system.l2.tags.occ_blocks::cpu.data      13232.834964                       # Average occupied blocks per requestor
system.l2.tags.occ_percent::writebacks       0.185984                       # Average percentage of cache occupancy
system.l2.tags.occ_percent::cpu.inst         0.000097                       # Average percentage of cache occupancy
system.l2.tags.occ_percent::cpu.data         0.807668                       # Average percentage of cache occupancy
system.l2.tags.occ_percent::total            0.993750                       # Average percentage of cache occupancy
system.l2.tags.occ_task_id_blocks::1024         16352                       # Occupied blocks per task id
system.l2.tags.age_task_id_blocks_1024::1          430                       # Occupied blocks per task id
system.l2.tags.age_task_id_blocks_1024::2         3123                       # Occupied blocks per task id
system.l2.tags.age_task_id_blocks_1024::3         9616                       # Occupied blocks per task id
system.l2.tags.age_task_id_blocks_1024::4         3183                       # Occupied blocks per task id
system.l2.tags.occ_task_id_percent::1024     0.998047                       # Percentage of cache occupancy per task id
system.l2.tags.tag_accesses                  40306051                       # Number of tag accesses
system.l2.tags.data_accesses                 40306051                       # Number of data accesses
system.l2.WritebackDirty_hits::writebacks      5212901                       # number of WritebackDirty hits
system.l2.WritebackDirty_hits::total          5212901                       # number of WritebackDirty hits
system.l2.WritebackClean_hits::writebacks           23                       # number of WritebackClean hits
system.l2.WritebackClean_hits::total               23                       # number of WritebackClean hits
system.l2.ReadExReq_hits::cpu.data             923496                       # number of ReadExReq hits
system.l2.ReadExReq_hits::total                923496                       # number of ReadExReq hits
system.l2.ReadCleanReq_hits::cpu.inst               1                       # number of ReadCleanReq hits
system.l2.ReadCleanReq_hits::total                  1                       # number of ReadCleanReq hits
system.l2.ReadSharedReq_hits::cpu.data        8583196                       # number of ReadSharedReq hits
system.l2.ReadSharedReq_hits::total           8583196                       # number of ReadSharedReq hits
system.l2.demand_hits::cpu.inst                     1                       # number of demand (read+write) hits
system.l2.demand_hits::cpu.data               9506692                       # number of demand (read+write) hits
system.l2.demand_hits::total                  9506693                       # number of demand (read+write) hits
system.l2.overall_hits::cpu.inst                    1                       # number of overall hits
system.l2.overall_hits::cpu.data              9506692                       # number of overall hits
system.l2.overall_hits::total                 9506693                       # number of overall hits
system.l2.ReadExReq_misses::cpu.data           225345                       # number of ReadExReq misses
system.l2.ReadExReq_misses::total              225345                       # number of ReadExReq misses
system.l2.ReadCleanReq_misses::cpu.inst           679                       # number of ReadCleanReq misses
system.l2.ReadCleanReq_misses::total              679                       # number of ReadCleanReq misses
system.l2.ReadSharedReq_misses::cpu.data      6476838                       # number of ReadSharedReq misses
system.l2.ReadSharedReq_misses::total         6476838                       # number of ReadSharedReq misses
system.l2.demand_misses::cpu.inst                 679                       # number of demand (read+write) misses
system.l2.demand_misses::cpu.data             6702183                       # number of demand (read+write) misses
system.l2.demand_misses::total                6702862                       # number of demand (read+write) misses
system.l2.overall_misses::cpu.inst                679                       # number of overall misses
system.l2.overall_misses::cpu.data            6702183                       # number of overall misses
system.l2.overall_misses::total               6702862                       # number of overall misses
system.l2.ReadExReq_miss_latency::cpu.data  17836237500                       # number of ReadExReq miss cycles
system.l2.ReadExReq_miss_latency::total   17836237500                       # number of ReadExReq miss cycles
system.l2.ReadCleanReq_miss_latency::cpu.inst     53138000                       # number of ReadCleanReq miss cycles
system.l2.ReadCleanReq_miss_latency::total     53138000                       # number of ReadCleanReq miss cycles
system.l2.ReadSharedReq_miss_latency::cpu.data 594761103000                       # number of ReadSharedReq miss cycles
system.l2.ReadSharedReq_miss_latency::total 594761103000                       # number of ReadSharedReq miss cycles
system.l2.demand_miss_latency::cpu.inst      53138000                       # number of demand (read+write) miss cycles
system.l2.demand_miss_latency::cpu.data  612597340500                       # number of demand (read+write) miss cycles
system.l2.demand_miss_latency::total     612650478500                       # number of demand (read+write) miss cycles
system.l2.overall_miss_latency::cpu.inst     53138000                       # number of overall miss cycles
system.l2.overall_miss_latency::cpu.data 612597340500                       # number of overall miss cycles
system.l2.overall_miss_latency::total    612650478500                       # number of overall miss cycles
system.l2.WritebackDirty_accesses::writebacks      5212901                       # number of WritebackDirty accesses(hits+misses)
system.l2.WritebackDirty_accesses::total      5212901                       # number of WritebackDirty accesses(hits+misses)
system.l2.WritebackClean_accesses::writebacks           23                       # number of WritebackClean accesses(hits+misses)
system.l2.WritebackClean_accesses::total           23                       # number of WritebackClean accesses(hits+misses)
system.l2.ReadExReq_accesses::cpu.data        1148841                       # number of ReadExReq accesses(hits+misses)
system.l2.ReadExReq_accesses::total           1148841                       # number of ReadExReq accesses(hits+misses)
system.l2.ReadCleanReq_accesses::cpu.inst          680                       # number of ReadCleanReq accesses(hits+misses)
system.l2.ReadCleanReq_accesses::total            680                       # number of ReadCleanReq accesses(hits+misses)
system.l2.ReadSharedReq_accesses::cpu.data     15060034                       # number of ReadSharedReq accesses(hits+misses)
system.l2.ReadSharedReq_accesses::total      15060034                       # number of ReadSharedReq accesses(hits+misses)
system.l2.demand_accesses::cpu.inst               680                       # number of demand (read+write) accesses
system.l2.demand_accesses::cpu.data          16208875                       # number of demand (read+write) accesses
system.l2.demand_accesses::total             16209555                       # number of demand (read+write) accesses
system.l2.overall_accesses::cpu.inst              680                       # number of overall (read+write) accesses
system.l2.overall_accesses::cpu.data         16208875                       # number of overall (read+write) accesses
system.l2.overall_accesses::total            16209555                       # number of overall (read+write) accesses
system.l2.ReadExReq_miss_rate::cpu.data      0.196150                       # miss rate for ReadExReq accesses
system.l2.ReadExReq_miss_rate::total         0.196150                       # miss rate for ReadExReq accesses
system.l2.ReadCleanReq_miss_rate::cpu.inst     0.998529                       # miss rate for ReadCleanReq accesses
system.l2.ReadCleanReq_miss_rate::total      0.998529                       # miss rate for ReadCleanReq accesses
system.l2.ReadSharedReq_miss_rate::cpu.data     0.430068                       # miss rate for ReadSharedReq accesses
system.l2.ReadSharedReq_miss_rate::total     0.430068                       # miss rate for ReadSharedReq accesses
system.l2.demand_miss_rate::cpu.inst         0.998529                       # miss rate for demand accesses
system.l2.demand_miss_rate::cpu.data         0.413488                       # miss rate for demand accesses
system.l2.demand_miss_rate::total            0.413513                       # miss rate for demand accesses
system.l2.overall_miss_rate::cpu.inst        0.998529                       # miss rate for overall accesses
system.l2.overall_miss_rate::cpu.data        0.413488                       # miss rate for overall accesses
system.l2.overall_miss_rate::total           0.413513                       # miss rate for overall accesses
system.l2.ReadExReq_avg_miss_latency::cpu.data 79150.802103                       # average ReadExReq miss latency
system.l2.ReadExReq_avg_miss_latency::total 79150.802103                       # average ReadExReq miss latency
system.l2.ReadCleanReq_avg_miss_latency::cpu.inst 78259.204713                       # average ReadCleanReq miss latency
system.l2.ReadCleanReq_avg_miss_latency::total 78259.204713                       # average ReadCleanReq miss latency
system.l2.ReadSharedReq_avg_miss_latency::cpu.data 91828.929950                       # average ReadSharedReq miss latency
system.l2.ReadSharedReq_avg_miss_latency::total 91828.929950                       # average ReadSharedReq miss latency
system.l2.demand_avg_miss_latency::cpu.inst 78259.204713                       # average overall miss latency
system.l2.demand_avg_miss_latency::cpu.data 91402.657985                       # average overall miss latency
system.l2.demand_avg_miss_latency::total 91401.326553                       # average overall miss latency
system.l2.overall_avg_miss_latency::cpu.inst 78259.204713                       # average overall miss latency
system.l2.overall_avg_miss_latency::cpu.data 91402.657985                       # average overall miss latency
system.l2.overall_avg_miss_latency::total 91401.326553                       # average overall miss latency
system.l2.blocked_cycles::no_mshrs                  0                       # number of cycles access was blocked
system.l2.blocked_cycles::no_targets                0                       # number of cycles access was blocked
system.l2.blocked::no_mshrs                         0                       # number of cycles access was blocked
system.l2.blocked::no_targets                       0                       # number of cycles access was blocked
system.l2.avg_blocked_cycles::no_mshrs            nan                       # average number of cycles each access was blocked
system.l2.avg_blocked_cycles::no_targets          nan                       # average number of cycles each access was blocked
system.l2.fast_writes                               0                       # number of fast writes performed
system.l2.cache_copies                              0                       # number of cache copies performed
system.l2.writebacks::writebacks              1176506                       # number of writebacks
system.l2.writebacks::total                   1176506                       # number of writebacks
system.l2.CleanEvict_mshr_misses::writebacks       142906                       # number of CleanEvict MSHR misses
system.l2.CleanEvict_mshr_misses::total        142906                       # number of CleanEvict MSHR misses
system.l2.ReadExReq_mshr_misses::cpu.data       225345                       # number of ReadExReq MSHR misses
system.l2.ReadExReq_mshr_misses::total         225345                       # number of ReadExReq MSHR misses
system.l2.ReadCleanReq_mshr_misses::cpu.inst          679                       # number of ReadCleanReq MSHR misses
system.l2.ReadCleanReq_mshr_misses::total          679                       # number of ReadCleanReq MSHR misses
system.l2.ReadSharedReq_mshr_misses::cpu.data      6476838                       # number of ReadSharedReq MSHR misses
system.l2.ReadSharedReq_mshr_misses::total      6476838                       # number of ReadSharedReq MSHR misses
system.l2.demand_mshr_misses::cpu.inst            679                       # number of demand (read+write) MSHR misses
system.l2.demand_mshr_misses::cpu.data        6702183                       # number of demand (read+write) MSHR misses
system.l2.demand_mshr_misses::total           6702862                       # number of demand (read+write) MSHR misses
system.l2.overall_mshr_misses::cpu.inst           679                       # number of overall MSHR misses
system.l2.overall_mshr_misses::cpu.data       6702183                       # number of overall MSHR misses
system.l2.overall_mshr_misses::total          6702862                       # number of overall MSHR misses
system.l2.ReadExReq_mshr_miss_latency::cpu.data  15582787500                       # number of ReadExReq MSHR miss cycles
system.l2.ReadExReq_mshr_miss_latency::total  15582787500                       # number of ReadExReq MSHR miss cycles
system.l2.ReadCleanReq_mshr_miss_latency::cpu.inst     46348000                       # number of ReadCleanReq MSHR miss cycles
system.l2.ReadCleanReq_mshr_miss_latency::total     46348000                       # number of ReadCleanReq MSHR miss cycles
system.l2.ReadSharedReq_mshr_miss_latency::cpu.data 529992723000                       # number of ReadSharedReq MSHR miss cycles
system.l2.ReadSharedReq_mshr_miss_latency::total 529992723000                       # number of ReadSharedReq MSHR miss cycles
system.l2.demand_mshr_miss_latency::cpu.inst     46348000                       # number of demand (read+write) MSHR miss cycles
system.l2.demand_mshr_miss_latency::cpu.data 545575510500                       # number of demand (read+write) MSHR miss cycles
system.l2.demand_mshr_miss_latency::total 545621858500                       # number of demand (read+write) MSHR miss cycles
system.l2.overall_mshr_miss_latency::cpu.inst     46348000                       # number of overall MSHR miss cycles
system.l2.overall_mshr_miss_latency::cpu.data 545575510500                       # number of overall MSHR miss cycles
system.l2.overall_mshr_miss_latency::total 545621858500                       # number of overall MSHR miss cycles
system.l2.CleanEvict_mshr_miss_rate::writebacks          inf                       # mshr miss rate for CleanEvict accesses
system.l2.CleanEvict_mshr_miss_rate::total          inf                       # mshr miss rate for CleanEvict accesses
system.l2.ReadExReq_mshr_miss_rate::cpu.data     0.196150                       # mshr miss rate for ReadExReq accesses
system.l2.ReadExReq_mshr_miss_rate::total     0.196150                       # mshr miss rate for ReadExReq accesses
system.l2.ReadCleanReq_mshr_miss_rate::cpu.inst     0.998529                       # mshr miss rate for ReadCleanReq accesses
system.l2.ReadCleanReq_mshr_miss_rate::total     0.998529                       # mshr miss rate for ReadCleanReq accesses
system.l2.ReadSharedReq_mshr_miss_rate::cpu.data     0.430068                       # mshr miss rate for ReadSharedReq accesses
system.l2.ReadSharedReq_mshr_miss_rate::total     0.430068                       # mshr miss rate for ReadSharedReq accesses
system.l2.demand_mshr_miss_rate::cpu.inst     0.998529                       # mshr miss rate for demand accesses
system.l2.demand_mshr_miss_rate::cpu.data     0.413488                       # mshr miss rate for demand accesses
system.l2.demand_mshr_miss_rate::total       0.413513                       # mshr miss rate for demand accesses
system.l2.overall_mshr_miss_rate::cpu.inst     0.998529                       # mshr miss rate for overall accesses
system.l2.overall_mshr_miss_rate::cpu.data     0.413488                       # mshr miss rate for overall accesses
system.l2.overall_mshr_miss_rate::total      0.413513                       # mshr miss rate for overall accesses
system.l2.ReadExReq_avg_mshr_miss_latency::cpu.data 69150.802103                       # average ReadExReq mshr miss latency
system.l2.ReadExReq_avg_mshr_miss_latency::total 69150.802103                       # average ReadExReq mshr miss latency
system.l2.ReadCleanReq_avg_mshr_miss_latency::cpu.inst 68259.204713                       # average ReadCleanReq mshr miss latency
system.l2.ReadCleanReq_avg_mshr_miss_latency::total 68259.204713                       # average ReadCleanReq mshr miss latency
system.l2.ReadSharedReq_avg_mshr_miss_latency::cpu.data 81828.929950                       # average ReadSharedReq mshr miss latency
system.l2.ReadSharedReq_avg_mshr_miss_latency::total 81828.929950                       # average ReadSharedReq mshr miss latency
system.l2.demand_avg_mshr_miss_latency::cpu.inst 68259.204713                       # average overall mshr miss latency
system.l2.demand_avg_mshr_miss_latency::cpu.data 81402.657985                       # average overall mshr miss latency
system.l2.demand_avg_mshr_miss_latency::total 81401.326553                       # average overall mshr miss latency
system.l2.overall_avg_mshr_miss_latency::cpu.inst 68259.204713                       # average overall mshr miss latency
system.l2.overall_avg_mshr_miss_latency::cpu.data 81402.657985                       # average overall mshr miss latency
system.l2.overall_avg_mshr_miss_latency::total 81401.326553                       # average overall mshr miss latency
system.l2.no_allocate_misses                        0                       # Number of misses that were no-allocate
system.membus.trans_dist::ReadResp            6477517                       # Transaction distribution
system.membus.trans_dist::WritebackDirty      1176506                       # Transaction distribution
system.membus.trans_dist::CleanEvict          5509313                       # Transaction distribution
system.membus.trans_dist::ReadExReq            225345                       # Transaction distribution
system.membus.trans_dist::ReadExResp           225345                       # Transaction distribution
system.membus.trans_dist::ReadSharedReq       6477517                       # Transaction distribution
system.membus.pkt_count_system.l2.mem_side::system.mem_ctrls.port     20091543                       # Packet count per connected master and slave (bytes)
system.membus.pkt_count_system.l2.mem_side::total     20091543                       # Packet count per connected master and slave (bytes)
system.membus.pkt_count::total               20091543                       # Packet count per connected master and slave (bytes)
system.membus.pkt_size_system.l2.mem_side::system.mem_ctrls.port    504279552                       # Cumulative packet size per connected master and slave (bytes)
system.membus.pkt_size_system.l2.mem_side::total    504279552                       # Cumulative packet size per connected master and slave (bytes)
system.membus.pkt_size::total               504279552                       # Cumulative packet size per connected master and slave (bytes)
system.membus.snoops                                0                       # Total snoops (count)
system.membus.snoop_fanout::samples          13388681                       # Request fanout histogram
system.membus.snoop_fanout::mean                    0                       # Request fanout histogram
system.membus.snoop_fanout::stdev                   0                       # Request fanout histogram
system.membus.snoop_fanout::underflows              0      0.00%      0.00% # Request fanout histogram
system.membus.snoop_fanout::0                13388681    100.00%    100.00% # Request fanout histogram
system.membus.snoop_fanout::1                       0      0.00%    100.00% # Request fanout histogram
system.membus.snoop_fanout::overflows               0      0.00%    100.00% # Request fanout histogram
system.membus.snoop_fanout::min_value               0                       # Request fanout histogram
system.membus.snoop_fanout::max_value               0                       # Request fanout histogram
system.membus.snoop_fanout::total            13388681                       # Request fanout histogram
system.membus.reqLayer2.occupancy         18103355500                       # Layer occupancy (ticks)
system.membus.reqLayer2.utilization               1.1                       # Layer utilization (%)
system.membus.respLayer1.occupancy        37375291250                       # Layer occupancy (ticks)
system.membus.respLayer1.utilization              2.2                       # Layer utilization (%)
system.tol2bus.snoop_filter.tot_requests     32418197                       # Total number of requests made to the snoop filter.
system.tol2bus.snoop_filter.hit_single_requests     16208642                       # Number of requests hitting in the snoop filter with a single holder of the requested data.
system.tol2bus.snoop_filter.hit_multi_requests            0                       # Number of requests hitting in the snoop filter with multiple (>1) holders of the requested data.
system.tol2bus.snoop_filter.tot_snoops         179748                       # Total number of snoops made to the snoop filter.
system.tol2bus.snoop_filter.hit_single_snoops       179748                       # Number of snoops hitting in the snoop filter with a single holder of the requested data.
system.tol2bus.snoop_filter.hit_multi_snoops            0                       # Number of snoops hitting in the snoop filter with multiple (>1) holders of the requested data.
system.tol2bus.trans_dist::ReadResp          15060714                       # Transaction distribution
system.tol2bus.trans_dist::WritebackDirty      6389407                       # Transaction distribution
system.tol2bus.trans_dist::WritebackClean           23                       # Transaction distribution
system.tol2bus.trans_dist::CleanEvict        16541873                       # Transaction distribution
system.tol2bus.trans_dist::ReadExReq          1148841                       # Transaction distribution
system.tol2bus.trans_dist::ReadExResp         1148841                       # Transaction distribution
system.tol2bus.trans_dist::ReadCleanReq           680                       # Transaction distribution
system.tol2bus.trans_dist::ReadSharedReq     15060034                       # Transaction distribution
system.tol2bus.pkt_count_system.cpu.icache.mem_side::system.l2.cpu_side         1383                       # Packet count per connected master and slave (bytes)
system.tol2bus.pkt_count_system.cpu.dcache.mem_side::system.l2.cpu_side     48626369                       # Packet count per connected master and slave (bytes)
system.tol2bus.pkt_count::total              48627752                       # Packet count per connected master and slave (bytes)
system.tol2bus.pkt_size_system.cpu.icache.mem_side::system.l2.cpu_side        44992                       # Cumulative packet size per connected master and slave (bytes)
system.tol2bus.pkt_size_system.cpu.dcache.mem_side::system.l2.cpu_side   1370993664                       # Cumulative packet size per connected master and slave (bytes)
system.tol2bus.pkt_size::total             1371038656                       # Cumulative packet size per connected master and slave (bytes)
system.tol2bus.snoops                         6722661                       # Total snoops (count)
system.tol2bus.snoop_fanout::samples         22932216                       # Request fanout histogram
system.tol2bus.snoop_fanout::mean            0.007838                       # Request fanout histogram
system.tol2bus.snoop_fanout::stdev           0.088186                       # Request fanout histogram
system.tol2bus.snoop_fanout::underflows             0      0.00%      0.00% # Request fanout histogram
system.tol2bus.snoop_fanout::0               22752468     99.22%     99.22% # Request fanout histogram
system.tol2bus.snoop_fanout::1                 179748      0.78%    100.00% # Request fanout histogram
system.tol2bus.snoop_fanout::2                      0      0.00%    100.00% # Request fanout histogram
system.tol2bus.snoop_fanout::3                      0      0.00%    100.00% # Request fanout histogram
system.tol2bus.snoop_fanout::4                      0      0.00%    100.00% # Request fanout histogram
system.tol2bus.snoop_fanout::overflows              0      0.00%    100.00% # Request fanout histogram
system.tol2bus.snoop_fanout::min_value              0                       # Request fanout histogram
system.tol2bus.snoop_fanout::max_value              1                       # Request fanout histogram
system.tol2bus.snoop_fanout::total           22932216                       # Request fanout histogram
system.tol2bus.reqLayer0.occupancy        21422022500                       # Layer occupancy (ticks)
system.tol2bus.reqLayer0.utilization              1.3                       # Layer utilization (%)
system.tol2bus.respLayer0.occupancy           1020000                       # Layer occupancy (ticks)
system.tol2bus.respLayer0.utilization             0.0                       # Layer utilization (%)
system.tol2bus.respLayer1.occupancy       24313312500                       # Layer occupancy (ticks)
system.tol2bus.respLayer1.utilization             1.4                       # Layer utilization (%)

---------- End Simulation Statistics   ----------
