
---------- Begin Simulation Statistics ----------
sim_seconds                                  1.051631                       # Number of seconds simulated
sim_ticks                                1051630820500                       # Number of ticks simulated
final_tick                               1051630820500                       # Number of ticks from beginning of simulation (restored from checkpoints and never reset)
sim_freq                                 1000000000000                       # Frequency of simulated ticks
host_inst_rate                                  35782                       # Simulator instruction rate (inst/s)
host_op_rate                                    52275                       # Simulator op (including micro ops) rate (op/s)
host_tick_rate                               75259710                       # Simulator tick rate (ticks/s)
host_mem_usage                                 828416                       # Number of bytes of host memory used
host_seconds                                 13973.36                       # Real time elapsed on the host
sim_insts                                   500000000                       # Number of instructions simulated
sim_ops                                     730450481                       # Number of ops (including micro ops) simulated
system.voltage_domain.voltage                       1                       # Voltage in Volts
system.clk_domain.clock                          1000                       # Clock period in ticks
system.mem_ctrls.bytes_read::cpu.inst           64000                       # Number of bytes read from this memory
system.mem_ctrls.bytes_read::cpu.data        39416256                       # Number of bytes read from this memory
system.mem_ctrls.bytes_read::total           39480256                       # Number of bytes read from this memory
system.mem_ctrls.bytes_inst_read::cpu.inst        64000                       # Number of instructions bytes read from this memory
system.mem_ctrls.bytes_inst_read::total         64000                       # Number of instructions bytes read from this memory
system.mem_ctrls.bytes_written::writebacks     23707648                       # Number of bytes written to this memory
system.mem_ctrls.bytes_written::total        23707648                       # Number of bytes written to this memory
system.mem_ctrls.num_reads::cpu.inst             1000                       # Number of read requests responded to by this memory
system.mem_ctrls.num_reads::cpu.data           615879                       # Number of read requests responded to by this memory
system.mem_ctrls.num_reads::total              616879                       # Number of read requests responded to by this memory
system.mem_ctrls.num_writes::writebacks        370432                       # Number of write requests responded to by this memory
system.mem_ctrls.num_writes::total             370432                       # Number of write requests responded to by this memory
system.mem_ctrls.bw_read::cpu.inst              60858                       # Total read bandwidth from this memory (bytes/s)
system.mem_ctrls.bw_read::cpu.data           37481077                       # Total read bandwidth from this memory (bytes/s)
system.mem_ctrls.bw_read::total              37541935                       # Total read bandwidth from this memory (bytes/s)
system.mem_ctrls.bw_inst_read::cpu.inst         60858                       # Instruction read bandwidth from this memory (bytes/s)
system.mem_ctrls.bw_inst_read::total            60858                       # Instruction read bandwidth from this memory (bytes/s)
system.mem_ctrls.bw_write::writebacks        22543698                       # Write bandwidth from this memory (bytes/s)
system.mem_ctrls.bw_write::total             22543698                       # Write bandwidth from this memory (bytes/s)
system.mem_ctrls.bw_total::writebacks        22543698                       # Total bandwidth to/from this memory (bytes/s)
system.mem_ctrls.bw_total::cpu.inst             60858                       # Total bandwidth to/from this memory (bytes/s)
system.mem_ctrls.bw_total::cpu.data          37481077                       # Total bandwidth to/from this memory (bytes/s)
system.mem_ctrls.bw_total::total             60085633                       # Total bandwidth to/from this memory (bytes/s)
system.mem_ctrls.readReqs                      616879                       # Number of read requests accepted
system.mem_ctrls.writeReqs                     370432                       # Number of write requests accepted
system.mem_ctrls.readBursts                    616879                       # Number of DRAM read bursts, including those serviced by the write queue
system.mem_ctrls.writeBursts                   370432                       # Number of DRAM write bursts, including those merged in the write queue
system.mem_ctrls.bytesReadDRAM               39401856                       # Total number of bytes read from DRAM
system.mem_ctrls.bytesReadWrQ                   78400                       # Total number of bytes read from write queue
system.mem_ctrls.bytesWritten                23706112                       # Total number of bytes written to DRAM
system.mem_ctrls.bytesReadSys                39480256                       # Total read bytes from the system interface side
system.mem_ctrls.bytesWrittenSys             23707648                       # Total written bytes from the system interface side
system.mem_ctrls.servicedByWrQ                   1225                       # Number of DRAM read bursts serviced by the write queue
system.mem_ctrls.mergedWrBursts                     0                       # Number of DRAM write bursts merged with an existing one
system.mem_ctrls.neitherReadNorWriteReqs       229059                       # Number of requests that are neither read nor write
system.mem_ctrls.perBankRdBursts::0             39595                       # Per bank write bursts
system.mem_ctrls.perBankRdBursts::1             38620                       # Per bank write bursts
system.mem_ctrls.perBankRdBursts::2             37748                       # Per bank write bursts
system.mem_ctrls.perBankRdBursts::3             37766                       # Per bank write bursts
system.mem_ctrls.perBankRdBursts::4             37527                       # Per bank write bursts
system.mem_ctrls.perBankRdBursts::5             37917                       # Per bank write bursts
system.mem_ctrls.perBankRdBursts::6             38396                       # Per bank write bursts
system.mem_ctrls.perBankRdBursts::7             38376                       # Per bank write bursts
system.mem_ctrls.perBankRdBursts::8             37797                       # Per bank write bursts
system.mem_ctrls.perBankRdBursts::9             37345                       # Per bank write bursts
system.mem_ctrls.perBankRdBursts::10            38585                       # Per bank write bursts
system.mem_ctrls.perBankRdBursts::11            39123                       # Per bank write bursts
system.mem_ctrls.perBankRdBursts::12            39159                       # Per bank write bursts
system.mem_ctrls.perBankRdBursts::13            38893                       # Per bank write bursts
system.mem_ctrls.perBankRdBursts::14            39478                       # Per bank write bursts
system.mem_ctrls.perBankRdBursts::15            39329                       # Per bank write bursts
system.mem_ctrls.perBankWrBursts::0             23961                       # Per bank write bursts
system.mem_ctrls.perBankWrBursts::1             23058                       # Per bank write bursts
system.mem_ctrls.perBankWrBursts::2             22474                       # Per bank write bursts
system.mem_ctrls.perBankWrBursts::3             22446                       # Per bank write bursts
system.mem_ctrls.perBankWrBursts::4             22206                       # Per bank write bursts
system.mem_ctrls.perBankWrBursts::5             22098                       # Per bank write bursts
system.mem_ctrls.perBankWrBursts::6             22294                       # Per bank write bursts
system.mem_ctrls.perBankWrBursts::7             23006                       # Per bank write bursts
system.mem_ctrls.perBankWrBursts::8             23601                       # Per bank write bursts
system.mem_ctrls.perBankWrBursts::9             23439                       # Per bank write bursts
system.mem_ctrls.perBankWrBursts::10            23555                       # Per bank write bursts
system.mem_ctrls.perBankWrBursts::11            23346                       # Per bank write bursts
system.mem_ctrls.perBankWrBursts::12            23388                       # Per bank write bursts
system.mem_ctrls.perBankWrBursts::13            23609                       # Per bank write bursts
system.mem_ctrls.perBankWrBursts::14            24123                       # Per bank write bursts
system.mem_ctrls.perBankWrBursts::15            23804                       # Per bank write bursts
system.mem_ctrls.numRdRetry                         0                       # Number of times read queue was full causing retry
system.mem_ctrls.numWrRetry                         0                       # Number of times write queue was full causing retry
system.mem_ctrls.totGap                  1051598154500                       # Total gap between requests
system.mem_ctrls.readPktSize::0                     0                       # Read request sizes (log2)
system.mem_ctrls.readPktSize::1                     0                       # Read request sizes (log2)
system.mem_ctrls.readPktSize::2                     0                       # Read request sizes (log2)
system.mem_ctrls.readPktSize::3                     0                       # Read request sizes (log2)
system.mem_ctrls.readPktSize::4                     0                       # Read request sizes (log2)
system.mem_ctrls.readPktSize::5                     0                       # Read request sizes (log2)
system.mem_ctrls.readPktSize::6                616879                       # Read request sizes (log2)
system.mem_ctrls.writePktSize::0                    0                       # Write request sizes (log2)
system.mem_ctrls.writePktSize::1                    0                       # Write request sizes (log2)
system.mem_ctrls.writePktSize::2                    0                       # Write request sizes (log2)
system.mem_ctrls.writePktSize::3                    0                       # Write request sizes (log2)
system.mem_ctrls.writePktSize::4                    0                       # Write request sizes (log2)
system.mem_ctrls.writePktSize::5                    0                       # Write request sizes (log2)
system.mem_ctrls.writePktSize::6               370432                       # Write request sizes (log2)
system.mem_ctrls.rdQLenPdf::0                  606921                       # What read queue length does an incoming req see
system.mem_ctrls.rdQLenPdf::1                    8042                       # What read queue length does an incoming req see
system.mem_ctrls.rdQLenPdf::2                     559                       # What read queue length does an incoming req see
system.mem_ctrls.rdQLenPdf::3                     132                       # What read queue length does an incoming req see
system.mem_ctrls.rdQLenPdf::4                       0                       # What read queue length does an incoming req see
system.mem_ctrls.rdQLenPdf::5                       0                       # What read queue length does an incoming req see
system.mem_ctrls.rdQLenPdf::6                       0                       # What read queue length does an incoming req see
system.mem_ctrls.rdQLenPdf::7                       0                       # What read queue length does an incoming req see
system.mem_ctrls.rdQLenPdf::8                       0                       # What read queue length does an incoming req see
system.mem_ctrls.rdQLenPdf::9                       0                       # What read queue length does an incoming req see
system.mem_ctrls.rdQLenPdf::10                      0                       # What read queue length does an incoming req see
system.mem_ctrls.rdQLenPdf::11                      0                       # What read queue length does an incoming req see
system.mem_ctrls.rdQLenPdf::12                      0                       # What read queue length does an incoming req see
system.mem_ctrls.rdQLenPdf::13                      0                       # What read queue length does an incoming req see
system.mem_ctrls.rdQLenPdf::14                      0                       # What read queue length does an incoming req see
system.mem_ctrls.rdQLenPdf::15                      0                       # What read queue length does an incoming req see
system.mem_ctrls.rdQLenPdf::16                      0                       # What read queue length does an incoming req see
system.mem_ctrls.rdQLenPdf::17                      0                       # What read queue length does an incoming req see
system.mem_ctrls.rdQLenPdf::18                      0                       # What read queue length does an incoming req see
system.mem_ctrls.rdQLenPdf::19                      0                       # What read queue length does an incoming req see
system.mem_ctrls.rdQLenPdf::20                      0                       # What read queue length does an incoming req see
system.mem_ctrls.rdQLenPdf::21                      0                       # What read queue length does an incoming req see
system.mem_ctrls.rdQLenPdf::22                      0                       # What read queue length does an incoming req see
system.mem_ctrls.rdQLenPdf::23                      0                       # What read queue length does an incoming req see
system.mem_ctrls.rdQLenPdf::24                      0                       # What read queue length does an incoming req see
system.mem_ctrls.rdQLenPdf::25                      0                       # What read queue length does an incoming req see
system.mem_ctrls.rdQLenPdf::26                      0                       # What read queue length does an incoming req see
system.mem_ctrls.rdQLenPdf::27                      0                       # What read queue length does an incoming req see
system.mem_ctrls.rdQLenPdf::28                      0                       # What read queue length does an incoming req see
system.mem_ctrls.rdQLenPdf::29                      0                       # What read queue length does an incoming req see
system.mem_ctrls.rdQLenPdf::30                      0                       # What read queue length does an incoming req see
system.mem_ctrls.rdQLenPdf::31                      0                       # What read queue length does an incoming req see
system.mem_ctrls.wrQLenPdf::0                       1                       # What write queue length does an incoming req see
system.mem_ctrls.wrQLenPdf::1                       1                       # What write queue length does an incoming req see
system.mem_ctrls.wrQLenPdf::2                       1                       # What write queue length does an incoming req see
system.mem_ctrls.wrQLenPdf::3                       1                       # What write queue length does an incoming req see
system.mem_ctrls.wrQLenPdf::4                       1                       # What write queue length does an incoming req see
system.mem_ctrls.wrQLenPdf::5                       1                       # What write queue length does an incoming req see
system.mem_ctrls.wrQLenPdf::6                       1                       # What write queue length does an incoming req see
system.mem_ctrls.wrQLenPdf::7                       1                       # What write queue length does an incoming req see
system.mem_ctrls.wrQLenPdf::8                       1                       # What write queue length does an incoming req see
system.mem_ctrls.wrQLenPdf::9                       1                       # What write queue length does an incoming req see
system.mem_ctrls.wrQLenPdf::10                      1                       # What write queue length does an incoming req see
system.mem_ctrls.wrQLenPdf::11                      1                       # What write queue length does an incoming req see
system.mem_ctrls.wrQLenPdf::12                      1                       # What write queue length does an incoming req see
system.mem_ctrls.wrQLenPdf::13                      1                       # What write queue length does an incoming req see
system.mem_ctrls.wrQLenPdf::14                      1                       # What write queue length does an incoming req see
system.mem_ctrls.wrQLenPdf::15                  13955                       # What write queue length does an incoming req see
system.mem_ctrls.wrQLenPdf::16                  14661                       # What write queue length does an incoming req see
system.mem_ctrls.wrQLenPdf::17                  21060                       # What write queue length does an incoming req see
system.mem_ctrls.wrQLenPdf::18                  21418                       # What write queue length does an incoming req see
system.mem_ctrls.wrQLenPdf::19                  21420                       # What write queue length does an incoming req see
system.mem_ctrls.wrQLenPdf::20                  21314                       # What write queue length does an incoming req see
system.mem_ctrls.wrQLenPdf::21                  21258                       # What write queue length does an incoming req see
system.mem_ctrls.wrQLenPdf::22                  21261                       # What write queue length does an incoming req see
system.mem_ctrls.wrQLenPdf::23                  21270                       # What write queue length does an incoming req see
system.mem_ctrls.wrQLenPdf::24                  21281                       # What write queue length does an incoming req see
system.mem_ctrls.wrQLenPdf::25                  21345                       # What write queue length does an incoming req see
system.mem_ctrls.wrQLenPdf::26                  21377                       # What write queue length does an incoming req see
system.mem_ctrls.wrQLenPdf::27                  21673                       # What write queue length does an incoming req see
system.mem_ctrls.wrQLenPdf::28                  22125                       # What write queue length does an incoming req see
system.mem_ctrls.wrQLenPdf::29                  21245                       # What write queue length does an incoming req see
system.mem_ctrls.wrQLenPdf::30                  21240                       # What write queue length does an incoming req see
system.mem_ctrls.wrQLenPdf::31                  21240                       # What write queue length does an incoming req see
system.mem_ctrls.wrQLenPdf::32                  21238                       # What write queue length does an incoming req see
system.mem_ctrls.wrQLenPdf::33                     34                       # What write queue length does an incoming req see
system.mem_ctrls.wrQLenPdf::34                      2                       # What write queue length does an incoming req see
system.mem_ctrls.wrQLenPdf::35                      0                       # What write queue length does an incoming req see
system.mem_ctrls.wrQLenPdf::36                      0                       # What write queue length does an incoming req see
system.mem_ctrls.wrQLenPdf::37                      0                       # What write queue length does an incoming req see
system.mem_ctrls.wrQLenPdf::38                      0                       # What write queue length does an incoming req see
system.mem_ctrls.wrQLenPdf::39                      0                       # What write queue length does an incoming req see
system.mem_ctrls.wrQLenPdf::40                      0                       # What write queue length does an incoming req see
system.mem_ctrls.wrQLenPdf::41                      0                       # What write queue length does an incoming req see
system.mem_ctrls.wrQLenPdf::42                      0                       # What write queue length does an incoming req see
system.mem_ctrls.wrQLenPdf::43                      0                       # What write queue length does an incoming req see
system.mem_ctrls.wrQLenPdf::44                      0                       # What write queue length does an incoming req see
system.mem_ctrls.wrQLenPdf::45                      0                       # What write queue length does an incoming req see
system.mem_ctrls.wrQLenPdf::46                      0                       # What write queue length does an incoming req see
system.mem_ctrls.wrQLenPdf::47                      0                       # What write queue length does an incoming req see
system.mem_ctrls.wrQLenPdf::48                      0                       # What write queue length does an incoming req see
system.mem_ctrls.wrQLenPdf::49                      0                       # What write queue length does an incoming req see
system.mem_ctrls.wrQLenPdf::50                      0                       # What write queue length does an incoming req see
system.mem_ctrls.wrQLenPdf::51                      0                       # What write queue length does an incoming req see
system.mem_ctrls.wrQLenPdf::52                      0                       # What write queue length does an incoming req see
system.mem_ctrls.wrQLenPdf::53                      0                       # What write queue length does an incoming req see
system.mem_ctrls.wrQLenPdf::54                      0                       # What write queue length does an incoming req see
system.mem_ctrls.wrQLenPdf::55                      0                       # What write queue length does an incoming req see
system.mem_ctrls.wrQLenPdf::56                      0                       # What write queue length does an incoming req see
system.mem_ctrls.wrQLenPdf::57                      0                       # What write queue length does an incoming req see
system.mem_ctrls.wrQLenPdf::58                      0                       # What write queue length does an incoming req see
system.mem_ctrls.wrQLenPdf::59                      0                       # What write queue length does an incoming req see
system.mem_ctrls.wrQLenPdf::60                      0                       # What write queue length does an incoming req see
system.mem_ctrls.wrQLenPdf::61                      0                       # What write queue length does an incoming req see
system.mem_ctrls.wrQLenPdf::62                      0                       # What write queue length does an incoming req see
system.mem_ctrls.wrQLenPdf::63                      0                       # What write queue length does an incoming req see
system.mem_ctrls.bytesPerActivate::samples       558650                       # Bytes accessed per row activation
system.mem_ctrls.bytesPerActivate::mean    112.965127                       # Bytes accessed per row activation
system.mem_ctrls.bytesPerActivate::gmean    85.645434                       # Bytes accessed per row activation
system.mem_ctrls.bytesPerActivate::stdev   142.549493                       # Bytes accessed per row activation
system.mem_ctrls.bytesPerActivate::0-127       416438     74.54%     74.54% # Bytes accessed per row activation
system.mem_ctrls.bytesPerActivate::128-255        98112     17.56%     92.11% # Bytes accessed per row activation
system.mem_ctrls.bytesPerActivate::256-383        17178      3.07%     95.18% # Bytes accessed per row activation
system.mem_ctrls.bytesPerActivate::384-511         5750      1.03%     96.21% # Bytes accessed per row activation
system.mem_ctrls.bytesPerActivate::512-639        11348      2.03%     98.24% # Bytes accessed per row activation
system.mem_ctrls.bytesPerActivate::640-767          936      0.17%     98.41% # Bytes accessed per row activation
system.mem_ctrls.bytesPerActivate::768-895          663      0.12%     98.53% # Bytes accessed per row activation
system.mem_ctrls.bytesPerActivate::896-1023          520      0.09%     98.62% # Bytes accessed per row activation
system.mem_ctrls.bytesPerActivate::1024-1151         7705      1.38%    100.00% # Bytes accessed per row activation
system.mem_ctrls.bytesPerActivate::total       558650                       # Bytes accessed per row activation
system.mem_ctrls.rdPerTurnAround::samples        21238                       # Reads before turning the bus around for writes
system.mem_ctrls.rdPerTurnAround::mean      28.962096                       # Reads before turning the bus around for writes
system.mem_ctrls.rdPerTurnAround::stdev    199.191441                       # Reads before turning the bus around for writes
system.mem_ctrls.rdPerTurnAround::0-1023        21228     99.95%     99.95% # Reads before turning the bus around for writes
system.mem_ctrls.rdPerTurnAround::1024-2047            7      0.03%     99.99% # Reads before turning the bus around for writes
system.mem_ctrls.rdPerTurnAround::2048-3071            1      0.00%     99.99% # Reads before turning the bus around for writes
system.mem_ctrls.rdPerTurnAround::3072-4095            1      0.00%    100.00% # Reads before turning the bus around for writes
system.mem_ctrls.rdPerTurnAround::27648-28671            1      0.00%    100.00% # Reads before turning the bus around for writes
system.mem_ctrls.rdPerTurnAround::total         21238                       # Reads before turning the bus around for writes
system.mem_ctrls.wrPerTurnAround::samples        21238                       # Writes before turning the bus around for reads
system.mem_ctrls.wrPerTurnAround::mean      17.440814                       # Writes before turning the bus around for reads
system.mem_ctrls.wrPerTurnAround::gmean     17.409496                       # Writes before turning the bus around for reads
system.mem_ctrls.wrPerTurnAround::stdev      1.036443                       # Writes before turning the bus around for reads
system.mem_ctrls.wrPerTurnAround::16             6631     31.22%     31.22% # Writes before turning the bus around for reads
system.mem_ctrls.wrPerTurnAround::17              614      2.89%     34.11% # Writes before turning the bus around for reads
system.mem_ctrls.wrPerTurnAround::18            12138     57.15%     91.27% # Writes before turning the bus around for reads
system.mem_ctrls.wrPerTurnAround::19             1720      8.10%     99.36% # Writes before turning the bus around for reads
system.mem_ctrls.wrPerTurnAround::20              127      0.60%     99.96% # Writes before turning the bus around for reads
system.mem_ctrls.wrPerTurnAround::21                7      0.03%    100.00% # Writes before turning the bus around for reads
system.mem_ctrls.wrPerTurnAround::23                1      0.00%    100.00% # Writes before turning the bus around for reads
system.mem_ctrls.wrPerTurnAround::total         21238                       # Writes before turning the bus around for reads
system.mem_ctrls.totQLat                   9028239250                       # Total ticks spent queuing
system.mem_ctrls.totMemAccLat             20571751750                       # Total ticks spent from burst creation until serviced by the DRAM
system.mem_ctrls.totBusLat                 3078270000                       # Total ticks spent in databus transfers
system.mem_ctrls.avgQLat                     14664.47                       # Average queueing delay per DRAM burst
system.mem_ctrls.avgBusLat                    5000.00                       # Average bus latency per DRAM burst
system.mem_ctrls.avgMemAccLat                33414.47                       # Average memory access latency per DRAM burst
system.mem_ctrls.avgRdBW                        37.47                       # Average DRAM read bandwidth in MiByte/s
system.mem_ctrls.avgWrBW                        22.54                       # Average achieved write bandwidth in MiByte/s
system.mem_ctrls.avgRdBWSys                     37.54                       # Average system read bandwidth in MiByte/s
system.mem_ctrls.avgWrBWSys                     22.54                       # Average system write bandwidth in MiByte/s
system.mem_ctrls.peakBW                      12800.00                       # Theoretical peak bandwidth in MiByte/s
system.mem_ctrls.busUtil                         0.47                       # Data bus utilization in percentage
system.mem_ctrls.busUtilRead                     0.29                       # Data bus utilization in percentage for reads
system.mem_ctrls.busUtilWrite                    0.18                       # Data bus utilization in percentage for writes
system.mem_ctrls.avgRdQLen                       1.00                       # Average read queue length when enqueuing
system.mem_ctrls.avgWrQLen                      24.06                       # Average write queue length when enqueuing
system.mem_ctrls.readRowHits                   296684                       # Number of row buffer hits during reads
system.mem_ctrls.writeRowHits                  130728                       # Number of row buffer hits during writes
system.mem_ctrls.readRowHitRate                 48.19                       # Row buffer hit rate for reads
system.mem_ctrls.writeRowHitRate                35.29                       # Row buffer hit rate for writes
system.mem_ctrls.avgGap                    1065113.38                       # Average gap between requests
system.mem_ctrls.pageHitRate                    43.34                       # Row buffer hit rate, read and write combined
system.mem_ctrls_0.actEnergy               2086688520                       # Energy for activate commands per rank (pJ)
system.mem_ctrls_0.preEnergy               1138570125                       # Energy for precharge commands per rank (pJ)
system.mem_ctrls_0.readEnergy              2386371000                       # Energy for read commands per rank (pJ)
system.mem_ctrls_0.writeEnergy             1176398640                       # Energy for write commands per rank (pJ)
system.mem_ctrls_0.refreshEnergy          68687130720                       # Energy for refresh commands per rank (pJ)
system.mem_ctrls_0.actBackEnergy         205290376920                       # Energy for active background per rank (pJ)
system.mem_ctrls_0.preBackEnergy         450896768250                       # Energy for precharge background per rank (pJ)
system.mem_ctrls_0.totalEnergy           731662304175                       # Total energy per rank (pJ)
system.mem_ctrls_0.averagePower            695.743341                       # Core power per rank (mW)
system.mem_ctrls_0.memoryStateTime::IDLE 748905581750                       # Time in different power states
system.mem_ctrls_0.memoryStateTime::REF   35116120000                       # Time in different power states
system.mem_ctrls_0.memoryStateTime::PRE_PDN            0                       # Time in different power states
system.mem_ctrls_0.memoryStateTime::ACT  267605055750                       # Time in different power states
system.mem_ctrls_0.memoryStateTime::ACT_PDN            0                       # Time in different power states
system.mem_ctrls_1.actEnergy               2136705480                       # Energy for activate commands per rank (pJ)
system.mem_ctrls_1.preEnergy               1165861125                       # Energy for precharge commands per rank (pJ)
system.mem_ctrls_1.readEnergy              2415730200                       # Energy for read commands per rank (pJ)
system.mem_ctrls_1.writeEnergy             1223845200                       # Energy for write commands per rank (pJ)
system.mem_ctrls_1.refreshEnergy          68687130720                       # Energy for refresh commands per rank (pJ)
system.mem_ctrls_1.actBackEnergy         205168836960                       # Energy for active background per rank (pJ)
system.mem_ctrls_1.preBackEnergy         451003382250                       # Energy for precharge background per rank (pJ)
system.mem_ctrls_1.totalEnergy           731801491935                       # Total energy per rank (pJ)
system.mem_ctrls_1.averagePower            695.875696                       # Core power per rank (mW)
system.mem_ctrls_1.memoryStateTime::IDLE 749077346000                       # Time in different power states
system.mem_ctrls_1.memoryStateTime::REF   35116120000                       # Time in different power states
system.mem_ctrls_1.memoryStateTime::PRE_PDN            0                       # Time in different power states
system.mem_ctrls_1.memoryStateTime::ACT  267433291500                       # Time in different power states
system.mem_ctrls_1.memoryStateTime::ACT_PDN            0                       # Time in different power states
system.cpu_voltage_domain.voltage                   1                       # Voltage in Volts
system.cpu_clk_domain.clock                       500                       # Clock period in ticks
system.cpu.apic_clk_domain.clock                 8000                       # Clock period in ticks
system.cpu.workload.num_syscalls                   86                       # Number of system calls
system.cpu.numCycles                       2103261641                       # number of cpu cycles simulated
system.cpu.numWorkItemsStarted                      0                       # number of work items this cpu started
system.cpu.numWorkItemsCompleted                    0                       # number of work items this cpu completed
system.cpu.committedInsts                   500000000                       # Number of instructions committed
system.cpu.committedOps                     730450481                       # Number of ops (including micro ops) committed
system.cpu.num_int_alu_accesses             729688887                       # Number of integer alu accesses
system.cpu.num_fp_alu_accesses                    761                       # Number of float alu accesses
system.cpu.num_func_calls                     1453959                       # number of times a function call or return occured
system.cpu.num_conditional_control_insts     31770494                       # number of instructions that are conditional controls
system.cpu.num_int_insts                    729688887                       # number of integer instructions
system.cpu.num_fp_insts                           761                       # number of float instructions
system.cpu.num_int_register_reads          1698743312                       # number of times the integer registers were read
system.cpu.num_int_register_writes          621892930                       # number of times the integer registers were written
system.cpu.num_fp_register_reads                 1183                       # number of times the floating registers were read
system.cpu.num_fp_register_writes                 497                       # number of times the floating registers were written
system.cpu.num_cc_register_reads            180840590                       # number of times the CC registers were read
system.cpu.num_cc_register_writes           276245123                       # number of times the CC registers were written
system.cpu.num_mem_refs                     295985437                       # number of memory refs
system.cpu.num_load_insts                   225946734                       # Number of load instructions
system.cpu.num_store_insts                   70038703                       # Number of store instructions
system.cpu.num_idle_cycles                          0                       # Number of idle cycles
system.cpu.num_busy_cycles                 2103261641                       # Number of busy cycles
system.cpu.not_idle_fraction                        1                       # Percentage of non-idle cycles
system.cpu.idle_fraction                            0                       # Percentage of idle cycles
system.cpu.Branches                          37843290                       # Number of branches fetched
system.cpu.op_class::No_OpClass                 94739      0.01%      0.01% # Class of executed instruction
system.cpu.op_class::IntAlu                 434349056     59.46%     59.48% # Class of executed instruction
system.cpu.op_class::IntMult                    20662      0.00%     59.48% # Class of executed instruction
system.cpu.op_class::IntDiv                       119      0.00%     59.48% # Class of executed instruction
system.cpu.op_class::FloatAdd                     468      0.00%     59.48% # Class of executed instruction
system.cpu.op_class::FloatCmp                       0      0.00%     59.48% # Class of executed instruction
system.cpu.op_class::FloatCvt                       0      0.00%     59.48% # Class of executed instruction
system.cpu.op_class::FloatMult                      0      0.00%     59.48% # Class of executed instruction
system.cpu.op_class::FloatDiv                       0      0.00%     59.48% # Class of executed instruction
system.cpu.op_class::FloatSqrt                      0      0.00%     59.48% # Class of executed instruction
system.cpu.op_class::SimdAdd                        0      0.00%     59.48% # Class of executed instruction
system.cpu.op_class::SimdAddAcc                     0      0.00%     59.48% # Class of executed instruction
system.cpu.op_class::SimdAlu                        0      0.00%     59.48% # Class of executed instruction
system.cpu.op_class::SimdCmp                        0      0.00%     59.48% # Class of executed instruction
system.cpu.op_class::SimdCvt                        0      0.00%     59.48% # Class of executed instruction
system.cpu.op_class::SimdMisc                       0      0.00%     59.48% # Class of executed instruction
system.cpu.op_class::SimdMult                       0      0.00%     59.48% # Class of executed instruction
system.cpu.op_class::SimdMultAcc                    0      0.00%     59.48% # Class of executed instruction
system.cpu.op_class::SimdShift                      0      0.00%     59.48% # Class of executed instruction
system.cpu.op_class::SimdShiftAcc                   0      0.00%     59.48% # Class of executed instruction
system.cpu.op_class::SimdSqrt                       0      0.00%     59.48% # Class of executed instruction
system.cpu.op_class::SimdFloatAdd                   0      0.00%     59.48% # Class of executed instruction
system.cpu.op_class::SimdFloatAlu                   0      0.00%     59.48% # Class of executed instruction
system.cpu.op_class::SimdFloatCmp                   0      0.00%     59.48% # Class of executed instruction
system.cpu.op_class::SimdFloatCvt                   0      0.00%     59.48% # Class of executed instruction
system.cpu.op_class::SimdFloatDiv                   0      0.00%     59.48% # Class of executed instruction
system.cpu.op_class::SimdFloatMisc                  0      0.00%     59.48% # Class of executed instruction
system.cpu.op_class::SimdFloatMult                  0      0.00%     59.48% # Class of executed instruction
system.cpu.op_class::SimdFloatMultAcc               0      0.00%     59.48% # Class of executed instruction
system.cpu.op_class::SimdFloatSqrt                  0      0.00%     59.48% # Class of executed instruction
system.cpu.op_class::MemRead                225946734     30.93%     90.41% # Class of executed instruction
system.cpu.op_class::MemWrite                70038703      9.59%    100.00% # Class of executed instruction
system.cpu.op_class::IprAccess                      0      0.00%    100.00% # Class of executed instruction
system.cpu.op_class::InstPrefetch                   0      0.00%    100.00% # Class of executed instruction
system.cpu.op_class::total                  730450481                       # Class of executed instruction
system.cpu.dcache.tags.replacements           2042531                       # number of replacements
system.cpu.dcache.tags.tagsinuse          2042.151730                       # Cycle average of tags in use
system.cpu.dcache.tags.total_refs           293940866                       # Total number of references to valid blocks.
system.cpu.dcache.tags.sampled_refs           2044579                       # Sample count of references to valid blocks.
system.cpu.dcache.tags.avg_refs            143.765962                       # Average number of references to valid blocks.
system.cpu.dcache.tags.warmup_cycle        3525446500                       # Cycle when the warmup percentage was hit.
system.cpu.dcache.tags.occ_blocks::cpu.data  2042.151730                       # Average occupied blocks per requestor
system.cpu.dcache.tags.occ_percent::cpu.data     0.997144                       # Average percentage of cache occupancy
system.cpu.dcache.tags.occ_percent::total     0.997144                       # Average percentage of cache occupancy
system.cpu.dcache.tags.occ_task_id_blocks::1024         2048                       # Occupied blocks per task id
system.cpu.dcache.tags.age_task_id_blocks_1024::1            2                       # Occupied blocks per task id
system.cpu.dcache.tags.age_task_id_blocks_1024::2           16                       # Occupied blocks per task id
system.cpu.dcache.tags.age_task_id_blocks_1024::3         1422                       # Occupied blocks per task id
system.cpu.dcache.tags.age_task_id_blocks_1024::4          608                       # Occupied blocks per task id
system.cpu.dcache.tags.occ_task_id_percent::1024            1                       # Percentage of cache occupancy per task id
system.cpu.dcache.tags.tag_accesses         594015469                       # Number of tag accesses
system.cpu.dcache.tags.data_accesses        594015469                       # Number of data accesses
system.cpu.dcache.ReadReq_hits::cpu.data    224491166                       # number of ReadReq hits
system.cpu.dcache.ReadReq_hits::total       224491166                       # number of ReadReq hits
system.cpu.dcache.WriteReq_hits::cpu.data     69449700                       # number of WriteReq hits
system.cpu.dcache.WriteReq_hits::total       69449700                       # number of WriteReq hits
system.cpu.dcache.demand_hits::cpu.data     293940866                       # number of demand (read+write) hits
system.cpu.dcache.demand_hits::total        293940866                       # number of demand (read+write) hits
system.cpu.dcache.overall_hits::cpu.data    293940866                       # number of overall hits
system.cpu.dcache.overall_hits::total       293940866                       # number of overall hits
system.cpu.dcache.ReadReq_misses::cpu.data      1439192                       # number of ReadReq misses
system.cpu.dcache.ReadReq_misses::total       1439192                       # number of ReadReq misses
system.cpu.dcache.WriteReq_misses::cpu.data       589003                       # number of WriteReq misses
system.cpu.dcache.WriteReq_misses::total       589003                       # number of WriteReq misses
system.cpu.dcache.SoftPFReq_misses::cpu.data        16384                       # number of SoftPFReq misses
system.cpu.dcache.SoftPFReq_misses::total        16384                       # number of SoftPFReq misses
system.cpu.dcache.demand_misses::cpu.data      2028195                       # number of demand (read+write) misses
system.cpu.dcache.demand_misses::total        2028195                       # number of demand (read+write) misses
system.cpu.dcache.overall_misses::cpu.data      2044579                       # number of overall misses
system.cpu.dcache.overall_misses::total       2044579                       # number of overall misses
system.cpu.dcache.ReadReq_miss_latency::cpu.data  39951806000                       # number of ReadReq miss cycles
system.cpu.dcache.ReadReq_miss_latency::total  39951806000                       # number of ReadReq miss cycles
system.cpu.dcache.WriteReq_miss_latency::cpu.data  30138358000                       # number of WriteReq miss cycles
system.cpu.dcache.WriteReq_miss_latency::total  30138358000                       # number of WriteReq miss cycles
system.cpu.dcache.demand_miss_latency::cpu.data  70090164000                       # number of demand (read+write) miss cycles
system.cpu.dcache.demand_miss_latency::total  70090164000                       # number of demand (read+write) miss cycles
system.cpu.dcache.overall_miss_latency::cpu.data  70090164000                       # number of overall miss cycles
system.cpu.dcache.overall_miss_latency::total  70090164000                       # number of overall miss cycles
system.cpu.dcache.ReadReq_accesses::cpu.data    225930358                       # number of ReadReq accesses(hits+misses)
system.cpu.dcache.ReadReq_accesses::total    225930358                       # number of ReadReq accesses(hits+misses)
system.cpu.dcache.WriteReq_accesses::cpu.data     70038703                       # number of WriteReq accesses(hits+misses)
system.cpu.dcache.WriteReq_accesses::total     70038703                       # number of WriteReq accesses(hits+misses)
system.cpu.dcache.SoftPFReq_accesses::cpu.data        16384                       # number of SoftPFReq accesses(hits+misses)
system.cpu.dcache.SoftPFReq_accesses::total        16384                       # number of SoftPFReq accesses(hits+misses)
system.cpu.dcache.demand_accesses::cpu.data    295969061                       # number of demand (read+write) accesses
system.cpu.dcache.demand_accesses::total    295969061                       # number of demand (read+write) accesses
system.cpu.dcache.overall_accesses::cpu.data    295985445                       # number of overall (read+write) accesses
system.cpu.dcache.overall_accesses::total    295985445                       # number of overall (read+write) accesses
system.cpu.dcache.ReadReq_miss_rate::cpu.data     0.006370                       # miss rate for ReadReq accesses
system.cpu.dcache.ReadReq_miss_rate::total     0.006370                       # miss rate for ReadReq accesses
system.cpu.dcache.WriteReq_miss_rate::cpu.data     0.008410                       # miss rate for WriteReq accesses
system.cpu.dcache.WriteReq_miss_rate::total     0.008410                       # miss rate for WriteReq accesses
system.cpu.dcache.SoftPFReq_miss_rate::cpu.data            1                       # miss rate for SoftPFReq accesses
system.cpu.dcache.SoftPFReq_miss_rate::total            1                       # miss rate for SoftPFReq accesses
system.cpu.dcache.demand_miss_rate::cpu.data     0.006853                       # miss rate for demand accesses
system.cpu.dcache.demand_miss_rate::total     0.006853                       # miss rate for demand accesses
system.cpu.dcache.overall_miss_rate::cpu.data     0.006908                       # miss rate for overall accesses
system.cpu.dcache.overall_miss_rate::total     0.006908                       # miss rate for overall accesses
system.cpu.dcache.ReadReq_avg_miss_latency::cpu.data 27759.886103                       # average ReadReq miss latency
system.cpu.dcache.ReadReq_avg_miss_latency::total 27759.886103                       # average ReadReq miss latency
system.cpu.dcache.WriteReq_avg_miss_latency::cpu.data 51168.428684                       # average WriteReq miss latency
system.cpu.dcache.WriteReq_avg_miss_latency::total 51168.428684                       # average WriteReq miss latency
system.cpu.dcache.demand_avg_miss_latency::cpu.data 34557.901977                       # average overall miss latency
system.cpu.dcache.demand_avg_miss_latency::total 34557.901977                       # average overall miss latency
system.cpu.dcache.overall_avg_miss_latency::cpu.data 34280.976181                       # average overall miss latency
system.cpu.dcache.overall_avg_miss_latency::total 34280.976181                       # average overall miss latency
system.cpu.dcache.blocked_cycles::no_mshrs       233931                       # number of cycles access was blocked
system.cpu.dcache.blocked_cycles::no_targets            0                       # number of cycles access was blocked
system.cpu.dcache.blocked::no_mshrs              5680                       # number of cycles access was blocked
system.cpu.dcache.blocked::no_targets               0                       # number of cycles access was blocked
system.cpu.dcache.avg_blocked_cycles::no_mshrs    41.185035                       # average number of cycles each access was blocked
system.cpu.dcache.avg_blocked_cycles::no_targets          nan                       # average number of cycles each access was blocked
system.cpu.dcache.fast_writes                       0                       # number of fast writes performed
system.cpu.dcache.cache_copies                      0                       # number of cache copies performed
system.cpu.dcache.writebacks::writebacks       956321                       # number of writebacks
system.cpu.dcache.writebacks::total            956321                       # number of writebacks
system.cpu.dcache.ReadReq_mshr_misses::cpu.data      1439192                       # number of ReadReq MSHR misses
system.cpu.dcache.ReadReq_mshr_misses::total      1439192                       # number of ReadReq MSHR misses
system.cpu.dcache.WriteReq_mshr_misses::cpu.data       589003                       # number of WriteReq MSHR misses
system.cpu.dcache.WriteReq_mshr_misses::total       589003                       # number of WriteReq MSHR misses
system.cpu.dcache.SoftPFReq_mshr_misses::cpu.data        16384                       # number of SoftPFReq MSHR misses
system.cpu.dcache.SoftPFReq_mshr_misses::total        16384                       # number of SoftPFReq MSHR misses
system.cpu.dcache.demand_mshr_misses::cpu.data      2028195                       # number of demand (read+write) MSHR misses
system.cpu.dcache.demand_mshr_misses::total      2028195                       # number of demand (read+write) MSHR misses
system.cpu.dcache.overall_mshr_misses::cpu.data      2044579                       # number of overall MSHR misses
system.cpu.dcache.overall_mshr_misses::total      2044579                       # number of overall MSHR misses
system.cpu.dcache.ReadReq_mshr_miss_latency::cpu.data  38512614000                       # number of ReadReq MSHR miss cycles
system.cpu.dcache.ReadReq_mshr_miss_latency::total  38512614000                       # number of ReadReq MSHR miss cycles
system.cpu.dcache.WriteReq_mshr_miss_latency::cpu.data  29549355000                       # number of WriteReq MSHR miss cycles
system.cpu.dcache.WriteReq_mshr_miss_latency::total  29549355000                       # number of WriteReq MSHR miss cycles
system.cpu.dcache.SoftPFReq_mshr_miss_latency::cpu.data   1289524437                       # number of SoftPFReq MSHR miss cycles
system.cpu.dcache.SoftPFReq_mshr_miss_latency::total   1289524437                       # number of SoftPFReq MSHR miss cycles
system.cpu.dcache.demand_mshr_miss_latency::cpu.data  68061969000                       # number of demand (read+write) MSHR miss cycles
system.cpu.dcache.demand_mshr_miss_latency::total  68061969000                       # number of demand (read+write) MSHR miss cycles
system.cpu.dcache.overall_mshr_miss_latency::cpu.data  69351493437                       # number of overall MSHR miss cycles
system.cpu.dcache.overall_mshr_miss_latency::total  69351493437                       # number of overall MSHR miss cycles
system.cpu.dcache.ReadReq_mshr_miss_rate::cpu.data     0.006370                       # mshr miss rate for ReadReq accesses
system.cpu.dcache.ReadReq_mshr_miss_rate::total     0.006370                       # mshr miss rate for ReadReq accesses
system.cpu.dcache.WriteReq_mshr_miss_rate::cpu.data     0.008410                       # mshr miss rate for WriteReq accesses
system.cpu.dcache.WriteReq_mshr_miss_rate::total     0.008410                       # mshr miss rate for WriteReq accesses
system.cpu.dcache.SoftPFReq_mshr_miss_rate::cpu.data            1                       # mshr miss rate for SoftPFReq accesses
system.cpu.dcache.SoftPFReq_mshr_miss_rate::total            1                       # mshr miss rate for SoftPFReq accesses
system.cpu.dcache.demand_mshr_miss_rate::cpu.data     0.006853                       # mshr miss rate for demand accesses
system.cpu.dcache.demand_mshr_miss_rate::total     0.006853                       # mshr miss rate for demand accesses
system.cpu.dcache.overall_mshr_miss_rate::cpu.data     0.006908                       # mshr miss rate for overall accesses
system.cpu.dcache.overall_mshr_miss_rate::total     0.006908                       # mshr miss rate for overall accesses
system.cpu.dcache.ReadReq_avg_mshr_miss_latency::cpu.data 26759.886103                       # average ReadReq mshr miss latency
system.cpu.dcache.ReadReq_avg_mshr_miss_latency::total 26759.886103                       # average ReadReq mshr miss latency
system.cpu.dcache.WriteReq_avg_mshr_miss_latency::cpu.data 50168.428684                       # average WriteReq mshr miss latency
system.cpu.dcache.WriteReq_avg_mshr_miss_latency::total 50168.428684                       # average WriteReq mshr miss latency
system.cpu.dcache.SoftPFReq_avg_mshr_miss_latency::cpu.data 78706.325500                       # average SoftPFReq mshr miss latency
system.cpu.dcache.SoftPFReq_avg_mshr_miss_latency::total 78706.325500                       # average SoftPFReq mshr miss latency
system.cpu.dcache.demand_avg_mshr_miss_latency::cpu.data 33557.901977                       # average overall mshr miss latency
system.cpu.dcache.demand_avg_mshr_miss_latency::total 33557.901977                       # average overall mshr miss latency
system.cpu.dcache.overall_avg_mshr_miss_latency::cpu.data 33919.693706                       # average overall mshr miss latency
system.cpu.dcache.overall_avg_mshr_miss_latency::total 33919.693706                       # average overall mshr miss latency
system.cpu.dcache.no_allocate_misses                0                       # Number of misses that were no-allocate
system.cpu.dtb_walker_cache.tags.replacements            0                       # number of replacements
system.cpu.dtb_walker_cache.tags.tagsinuse            0                       # Cycle average of tags in use
system.cpu.dtb_walker_cache.tags.total_refs            0                       # Total number of references to valid blocks.
system.cpu.dtb_walker_cache.tags.sampled_refs            0                       # Sample count of references to valid blocks.
system.cpu.dtb_walker_cache.tags.avg_refs          nan                       # Average number of references to valid blocks.
system.cpu.dtb_walker_cache.tags.warmup_cycle            0                       # Cycle when the warmup percentage was hit.
system.cpu.dtb_walker_cache.tags.tag_accesses            0                       # Number of tag accesses
system.cpu.dtb_walker_cache.tags.data_accesses            0                       # Number of data accesses
system.cpu.dtb_walker_cache.blocked_cycles::no_mshrs            0                       # number of cycles access was blocked
system.cpu.dtb_walker_cache.blocked_cycles::no_targets            0                       # number of cycles access was blocked
system.cpu.dtb_walker_cache.blocked::no_mshrs            0                       # number of cycles access was blocked
system.cpu.dtb_walker_cache.blocked::no_targets            0                       # number of cycles access was blocked
system.cpu.dtb_walker_cache.avg_blocked_cycles::no_mshrs          nan                       # average number of cycles each access was blocked
system.cpu.dtb_walker_cache.avg_blocked_cycles::no_targets          nan                       # average number of cycles each access was blocked
system.cpu.dtb_walker_cache.fast_writes             0                       # number of fast writes performed
system.cpu.dtb_walker_cache.cache_copies            0                       # number of cache copies performed
system.cpu.dtb_walker_cache.no_allocate_misses            0                       # Number of misses that were no-allocate
system.cpu.icache.tags.replacements                45                       # number of replacements
system.cpu.icache.tags.tagsinuse           670.960815                       # Cycle average of tags in use
system.cpu.icache.tags.total_refs           687396859                       # Total number of references to valid blocks.
system.cpu.icache.tags.sampled_refs              1001                       # Sample count of references to valid blocks.
system.cpu.icache.tags.avg_refs          686710.148851                       # Average number of references to valid blocks.
system.cpu.icache.tags.warmup_cycle                 0                       # Cycle when the warmup percentage was hit.
system.cpu.icache.tags.occ_blocks::cpu.inst   670.960815                       # Average occupied blocks per requestor
system.cpu.icache.tags.occ_percent::cpu.inst     0.327618                       # Average percentage of cache occupancy
system.cpu.icache.tags.occ_percent::total     0.327618                       # Average percentage of cache occupancy
system.cpu.icache.tags.occ_task_id_blocks::1024          956                       # Occupied blocks per task id
system.cpu.icache.tags.age_task_id_blocks_1024::1            7                       # Occupied blocks per task id
system.cpu.icache.tags.age_task_id_blocks_1024::3           25                       # Occupied blocks per task id
system.cpu.icache.tags.age_task_id_blocks_1024::4          924                       # Occupied blocks per task id
system.cpu.icache.tags.occ_task_id_percent::1024     0.466797                       # Percentage of cache occupancy per task id
system.cpu.icache.tags.tag_accesses        1374796721                       # Number of tag accesses
system.cpu.icache.tags.data_accesses       1374796721                       # Number of data accesses
system.cpu.icache.ReadReq_hits::cpu.inst    687396859                       # number of ReadReq hits
system.cpu.icache.ReadReq_hits::total       687396859                       # number of ReadReq hits
system.cpu.icache.demand_hits::cpu.inst     687396859                       # number of demand (read+write) hits
system.cpu.icache.demand_hits::total        687396859                       # number of demand (read+write) hits
system.cpu.icache.overall_hits::cpu.inst    687396859                       # number of overall hits
system.cpu.icache.overall_hits::total       687396859                       # number of overall hits
system.cpu.icache.ReadReq_misses::cpu.inst         1001                       # number of ReadReq misses
system.cpu.icache.ReadReq_misses::total          1001                       # number of ReadReq misses
system.cpu.icache.demand_misses::cpu.inst         1001                       # number of demand (read+write) misses
system.cpu.icache.demand_misses::total           1001                       # number of demand (read+write) misses
system.cpu.icache.overall_misses::cpu.inst         1001                       # number of overall misses
system.cpu.icache.overall_misses::total          1001                       # number of overall misses
system.cpu.icache.ReadReq_miss_latency::cpu.inst     77793000                       # number of ReadReq miss cycles
system.cpu.icache.ReadReq_miss_latency::total     77793000                       # number of ReadReq miss cycles
system.cpu.icache.demand_miss_latency::cpu.inst     77793000                       # number of demand (read+write) miss cycles
system.cpu.icache.demand_miss_latency::total     77793000                       # number of demand (read+write) miss cycles
system.cpu.icache.overall_miss_latency::cpu.inst     77793000                       # number of overall miss cycles
system.cpu.icache.overall_miss_latency::total     77793000                       # number of overall miss cycles
system.cpu.icache.ReadReq_accesses::cpu.inst    687397860                       # number of ReadReq accesses(hits+misses)
system.cpu.icache.ReadReq_accesses::total    687397860                       # number of ReadReq accesses(hits+misses)
system.cpu.icache.demand_accesses::cpu.inst    687397860                       # number of demand (read+write) accesses
system.cpu.icache.demand_accesses::total    687397860                       # number of demand (read+write) accesses
system.cpu.icache.overall_accesses::cpu.inst    687397860                       # number of overall (read+write) accesses
system.cpu.icache.overall_accesses::total    687397860                       # number of overall (read+write) accesses
system.cpu.icache.ReadReq_miss_rate::cpu.inst     0.000001                       # miss rate for ReadReq accesses
system.cpu.icache.ReadReq_miss_rate::total     0.000001                       # miss rate for ReadReq accesses
system.cpu.icache.demand_miss_rate::cpu.inst     0.000001                       # miss rate for demand accesses
system.cpu.icache.demand_miss_rate::total     0.000001                       # miss rate for demand accesses
system.cpu.icache.overall_miss_rate::cpu.inst     0.000001                       # miss rate for overall accesses
system.cpu.icache.overall_miss_rate::total     0.000001                       # miss rate for overall accesses
system.cpu.icache.ReadReq_avg_miss_latency::cpu.inst 77715.284715                       # average ReadReq miss latency
system.cpu.icache.ReadReq_avg_miss_latency::total 77715.284715                       # average ReadReq miss latency
system.cpu.icache.demand_avg_miss_latency::cpu.inst 77715.284715                       # average overall miss latency
system.cpu.icache.demand_avg_miss_latency::total 77715.284715                       # average overall miss latency
system.cpu.icache.overall_avg_miss_latency::cpu.inst 77715.284715                       # average overall miss latency
system.cpu.icache.overall_avg_miss_latency::total 77715.284715                       # average overall miss latency
system.cpu.icache.blocked_cycles::no_mshrs            0                       # number of cycles access was blocked
system.cpu.icache.blocked_cycles::no_targets            0                       # number of cycles access was blocked
system.cpu.icache.blocked::no_mshrs                 0                       # number of cycles access was blocked
system.cpu.icache.blocked::no_targets               0                       # number of cycles access was blocked
system.cpu.icache.avg_blocked_cycles::no_mshrs          nan                       # average number of cycles each access was blocked
system.cpu.icache.avg_blocked_cycles::no_targets          nan                       # average number of cycles each access was blocked
system.cpu.icache.fast_writes                       0                       # number of fast writes performed
system.cpu.icache.cache_copies                      0                       # number of cache copies performed
system.cpu.icache.writebacks::writebacks           45                       # number of writebacks
system.cpu.icache.writebacks::total                45                       # number of writebacks
system.cpu.icache.ReadReq_mshr_misses::cpu.inst         1001                       # number of ReadReq MSHR misses
system.cpu.icache.ReadReq_mshr_misses::total         1001                       # number of ReadReq MSHR misses
system.cpu.icache.demand_mshr_misses::cpu.inst         1001                       # number of demand (read+write) MSHR misses
system.cpu.icache.demand_mshr_misses::total         1001                       # number of demand (read+write) MSHR misses
system.cpu.icache.overall_mshr_misses::cpu.inst         1001                       # number of overall MSHR misses
system.cpu.icache.overall_mshr_misses::total         1001                       # number of overall MSHR misses
system.cpu.icache.ReadReq_mshr_miss_latency::cpu.inst     76792000                       # number of ReadReq MSHR miss cycles
system.cpu.icache.ReadReq_mshr_miss_latency::total     76792000                       # number of ReadReq MSHR miss cycles
system.cpu.icache.demand_mshr_miss_latency::cpu.inst     76792000                       # number of demand (read+write) MSHR miss cycles
system.cpu.icache.demand_mshr_miss_latency::total     76792000                       # number of demand (read+write) MSHR miss cycles
system.cpu.icache.overall_mshr_miss_latency::cpu.inst     76792000                       # number of overall MSHR miss cycles
system.cpu.icache.overall_mshr_miss_latency::total     76792000                       # number of overall MSHR miss cycles
system.cpu.icache.ReadReq_mshr_miss_rate::cpu.inst     0.000001                       # mshr miss rate for ReadReq accesses
system.cpu.icache.ReadReq_mshr_miss_rate::total     0.000001                       # mshr miss rate for ReadReq accesses
system.cpu.icache.demand_mshr_miss_rate::cpu.inst     0.000001                       # mshr miss rate for demand accesses
system.cpu.icache.demand_mshr_miss_rate::total     0.000001                       # mshr miss rate for demand accesses
system.cpu.icache.overall_mshr_miss_rate::cpu.inst     0.000001                       # mshr miss rate for overall accesses
system.cpu.icache.overall_mshr_miss_rate::total     0.000001                       # mshr miss rate for overall accesses
system.cpu.icache.ReadReq_avg_mshr_miss_latency::cpu.inst 76715.284715                       # average ReadReq mshr miss latency
system.cpu.icache.ReadReq_avg_mshr_miss_latency::total 76715.284715                       # average ReadReq mshr miss latency
system.cpu.icache.demand_avg_mshr_miss_latency::cpu.inst 76715.284715                       # average overall mshr miss latency
system.cpu.icache.demand_avg_mshr_miss_latency::total 76715.284715                       # average overall mshr miss latency
system.cpu.icache.overall_avg_mshr_miss_latency::cpu.inst 76715.284715                       # average overall mshr miss latency
system.cpu.icache.overall_avg_mshr_miss_latency::total 76715.284715                       # average overall mshr miss latency
system.cpu.icache.no_allocate_misses                0                       # Number of misses that were no-allocate
system.cpu.itb_walker_cache.tags.replacements            0                       # number of replacements
system.cpu.itb_walker_cache.tags.tagsinuse            0                       # Cycle average of tags in use
system.cpu.itb_walker_cache.tags.total_refs            0                       # Total number of references to valid blocks.
system.cpu.itb_walker_cache.tags.sampled_refs            0                       # Sample count of references to valid blocks.
system.cpu.itb_walker_cache.tags.avg_refs          nan                       # Average number of references to valid blocks.
system.cpu.itb_walker_cache.tags.warmup_cycle            0                       # Cycle when the warmup percentage was hit.
system.cpu.itb_walker_cache.tags.tag_accesses            0                       # Number of tag accesses
system.cpu.itb_walker_cache.tags.data_accesses            0                       # Number of data accesses
system.cpu.itb_walker_cache.blocked_cycles::no_mshrs            0                       # number of cycles access was blocked
system.cpu.itb_walker_cache.blocked_cycles::no_targets            0                       # number of cycles access was blocked
system.cpu.itb_walker_cache.blocked::no_mshrs            0                       # number of cycles access was blocked
system.cpu.itb_walker_cache.blocked::no_targets            0                       # number of cycles access was blocked
system.cpu.itb_walker_cache.avg_blocked_cycles::no_mshrs          nan                       # average number of cycles each access was blocked
system.cpu.itb_walker_cache.avg_blocked_cycles::no_targets          nan                       # average number of cycles each access was blocked
system.cpu.itb_walker_cache.fast_writes             0                       # number of fast writes performed
system.cpu.itb_walker_cache.cache_copies            0                       # number of cache copies performed
system.cpu.itb_walker_cache.no_allocate_misses            0                       # Number of misses that were no-allocate
system.l2.tags.replacements                    600226                       # number of replacements
system.l2.tags.tagsinuse                 16281.426576                       # Cycle average of tags in use
system.l2.tags.total_refs                     2882357                       # Total number of references to valid blocks.
system.l2.tags.sampled_refs                    616491                       # Sample count of references to valid blocks.
system.l2.tags.avg_refs                      4.675424                       # Average number of references to valid blocks.
system.l2.tags.warmup_cycle                3962550000                       # Cycle when the warmup percentage was hit.
system.l2.tags.occ_blocks::writebacks     6118.381684                       # Average occupied blocks per requestor
system.l2.tags.occ_blocks::cpu.inst         47.118557                       # Average occupied blocks per requestor
system.l2.tags.occ_blocks::cpu.data      10115.926336                       # Average occupied blocks per requestor
system.l2.tags.occ_percent::writebacks       0.373436                       # Average percentage of cache occupancy
system.l2.tags.occ_percent::cpu.inst         0.002876                       # Average percentage of cache occupancy
system.l2.tags.occ_percent::cpu.data         0.617427                       # Average percentage of cache occupancy
system.l2.tags.occ_percent::total            0.993739                       # Average percentage of cache occupancy
system.l2.tags.occ_task_id_blocks::1024         16265                       # Occupied blocks per task id
system.l2.tags.age_task_id_blocks_1024::1            9                       # Occupied blocks per task id
system.l2.tags.age_task_id_blocks_1024::2           10                       # Occupied blocks per task id
system.l2.tags.age_task_id_blocks_1024::3           38                       # Occupied blocks per task id
system.l2.tags.age_task_id_blocks_1024::4        16208                       # Occupied blocks per task id
system.l2.tags.occ_task_id_percent::1024     0.992737                       # Percentage of cache occupancy per task id
system.l2.tags.tag_accesses                 524489334                       # Number of tag accesses
system.l2.tags.data_accesses                524489334                       # Number of data accesses
system.l2.WritebackDirty_hits::writebacks       956321                       # number of WritebackDirty hits
system.l2.WritebackDirty_hits::total           956321                       # number of WritebackDirty hits
system.l2.WritebackClean_hits::writebacks           45                       # number of WritebackClean hits
system.l2.WritebackClean_hits::total               45                       # number of WritebackClean hits
system.l2.ReadExReq_hits::cpu.data             285909                       # number of ReadExReq hits
system.l2.ReadExReq_hits::total                285909                       # number of ReadExReq hits
system.l2.ReadCleanReq_hits::cpu.inst               1                       # number of ReadCleanReq hits
system.l2.ReadCleanReq_hits::total                  1                       # number of ReadCleanReq hits
system.l2.ReadSharedReq_hits::cpu.data        1142791                       # number of ReadSharedReq hits
system.l2.ReadSharedReq_hits::total           1142791                       # number of ReadSharedReq hits
system.l2.demand_hits::cpu.inst                     1                       # number of demand (read+write) hits
system.l2.demand_hits::cpu.data               1428700                       # number of demand (read+write) hits
system.l2.demand_hits::total                  1428701                       # number of demand (read+write) hits
system.l2.overall_hits::cpu.inst                    1                       # number of overall hits
system.l2.overall_hits::cpu.data              1428700                       # number of overall hits
system.l2.overall_hits::total                 1428701                       # number of overall hits
system.l2.ReadExReq_misses::cpu.data           303094                       # number of ReadExReq misses
system.l2.ReadExReq_misses::total              303094                       # number of ReadExReq misses
system.l2.ReadCleanReq_misses::cpu.inst          1000                       # number of ReadCleanReq misses
system.l2.ReadCleanReq_misses::total             1000                       # number of ReadCleanReq misses
system.l2.ReadSharedReq_misses::cpu.data       312785                       # number of ReadSharedReq misses
system.l2.ReadSharedReq_misses::total          312785                       # number of ReadSharedReq misses
system.l2.demand_misses::cpu.inst                1000                       # number of demand (read+write) misses
system.l2.demand_misses::cpu.data              615879                       # number of demand (read+write) misses
system.l2.demand_misses::total                 616879                       # number of demand (read+write) misses
system.l2.overall_misses::cpu.inst               1000                       # number of overall misses
system.l2.overall_misses::cpu.data             615879                       # number of overall misses
system.l2.overall_misses::total                616879                       # number of overall misses
system.l2.ReadExReq_miss_latency::cpu.data  25663805000                       # number of ReadExReq miss cycles
system.l2.ReadExReq_miss_latency::total   25663805000                       # number of ReadExReq miss cycles
system.l2.ReadCleanReq_miss_latency::cpu.inst     75278500                       # number of ReadCleanReq miss cycles
system.l2.ReadCleanReq_miss_latency::total     75278500                       # number of ReadCleanReq miss cycles
system.l2.ReadSharedReq_miss_latency::cpu.data  25619366500                       # number of ReadSharedReq miss cycles
system.l2.ReadSharedReq_miss_latency::total  25619366500                       # number of ReadSharedReq miss cycles
system.l2.demand_miss_latency::cpu.inst      75278500                       # number of demand (read+write) miss cycles
system.l2.demand_miss_latency::cpu.data   51283171500                       # number of demand (read+write) miss cycles
system.l2.demand_miss_latency::total      51358450000                       # number of demand (read+write) miss cycles
system.l2.overall_miss_latency::cpu.inst     75278500                       # number of overall miss cycles
system.l2.overall_miss_latency::cpu.data  51283171500                       # number of overall miss cycles
system.l2.overall_miss_latency::total     51358450000                       # number of overall miss cycles
system.l2.WritebackDirty_accesses::writebacks       956321                       # number of WritebackDirty accesses(hits+misses)
system.l2.WritebackDirty_accesses::total       956321                       # number of WritebackDirty accesses(hits+misses)
system.l2.WritebackClean_accesses::writebacks           45                       # number of WritebackClean accesses(hits+misses)
system.l2.WritebackClean_accesses::total           45                       # number of WritebackClean accesses(hits+misses)
system.l2.ReadExReq_accesses::cpu.data         589003                       # number of ReadExReq accesses(hits+misses)
system.l2.ReadExReq_accesses::total            589003                       # number of ReadExReq accesses(hits+misses)
system.l2.ReadCleanReq_accesses::cpu.inst         1001                       # number of ReadCleanReq accesses(hits+misses)
system.l2.ReadCleanReq_accesses::total           1001                       # number of ReadCleanReq accesses(hits+misses)
system.l2.ReadSharedReq_accesses::cpu.data      1455576                       # number of ReadSharedReq accesses(hits+misses)
system.l2.ReadSharedReq_accesses::total       1455576                       # number of ReadSharedReq accesses(hits+misses)
system.l2.demand_accesses::cpu.inst              1001                       # number of demand (read+write) accesses
system.l2.demand_accesses::cpu.data           2044579                       # number of demand (read+write) accesses
system.l2.demand_accesses::total              2045580                       # number of demand (read+write) accesses
system.l2.overall_accesses::cpu.inst             1001                       # number of overall (read+write) accesses
system.l2.overall_accesses::cpu.data          2044579                       # number of overall (read+write) accesses
system.l2.overall_accesses::total             2045580                       # number of overall (read+write) accesses
system.l2.ReadExReq_miss_rate::cpu.data      0.514588                       # miss rate for ReadExReq accesses
system.l2.ReadExReq_miss_rate::total         0.514588                       # miss rate for ReadExReq accesses
system.l2.ReadCleanReq_miss_rate::cpu.inst     0.999001                       # miss rate for ReadCleanReq accesses
system.l2.ReadCleanReq_miss_rate::total      0.999001                       # miss rate for ReadCleanReq accesses
system.l2.ReadSharedReq_miss_rate::cpu.data     0.214887                       # miss rate for ReadSharedReq accesses
system.l2.ReadSharedReq_miss_rate::total     0.214887                       # miss rate for ReadSharedReq accesses
system.l2.demand_miss_rate::cpu.inst         0.999001                       # miss rate for demand accesses
system.l2.demand_miss_rate::cpu.data         0.301225                       # miss rate for demand accesses
system.l2.demand_miss_rate::total            0.301567                       # miss rate for demand accesses
system.l2.overall_miss_rate::cpu.inst        0.999001                       # miss rate for overall accesses
system.l2.overall_miss_rate::cpu.data        0.301225                       # miss rate for overall accesses
system.l2.overall_miss_rate::total           0.301567                       # miss rate for overall accesses
system.l2.ReadExReq_avg_miss_latency::cpu.data 84672.758286                       # average ReadExReq miss latency
system.l2.ReadExReq_avg_miss_latency::total 84672.758286                       # average ReadExReq miss latency
system.l2.ReadCleanReq_avg_miss_latency::cpu.inst 75278.500000                       # average ReadCleanReq miss latency
system.l2.ReadCleanReq_avg_miss_latency::total 75278.500000                       # average ReadCleanReq miss latency
system.l2.ReadSharedReq_avg_miss_latency::cpu.data 81907.273367                       # average ReadSharedReq miss latency
system.l2.ReadSharedReq_avg_miss_latency::total 81907.273367                       # average ReadSharedReq miss latency
system.l2.demand_avg_miss_latency::cpu.inst 75278.500000                       # average overall miss latency
system.l2.demand_avg_miss_latency::cpu.data 83268.258051                       # average overall miss latency
system.l2.demand_avg_miss_latency::total 83255.306146                       # average overall miss latency
system.l2.overall_avg_miss_latency::cpu.inst 75278.500000                       # average overall miss latency
system.l2.overall_avg_miss_latency::cpu.data 83268.258051                       # average overall miss latency
system.l2.overall_avg_miss_latency::total 83255.306146                       # average overall miss latency
system.l2.blocked_cycles::no_mshrs                  0                       # number of cycles access was blocked
system.l2.blocked_cycles::no_targets                0                       # number of cycles access was blocked
system.l2.blocked::no_mshrs                         0                       # number of cycles access was blocked
system.l2.blocked::no_targets                       0                       # number of cycles access was blocked
system.l2.avg_blocked_cycles::no_mshrs            nan                       # average number of cycles each access was blocked
system.l2.avg_blocked_cycles::no_targets          nan                       # average number of cycles each access was blocked
system.l2.fast_writes                               0                       # number of fast writes performed
system.l2.cache_copies                              0                       # number of cache copies performed
system.l2.writebacks::writebacks               370432                       # number of writebacks
system.l2.writebacks::total                    370432                       # number of writebacks
system.l2.CleanEvict_mshr_misses::writebacks           18                       # number of CleanEvict MSHR misses
system.l2.CleanEvict_mshr_misses::total            18                       # number of CleanEvict MSHR misses
system.l2.ReadExReq_mshr_misses::cpu.data       303094                       # number of ReadExReq MSHR misses
system.l2.ReadExReq_mshr_misses::total         303094                       # number of ReadExReq MSHR misses
system.l2.ReadCleanReq_mshr_misses::cpu.inst         1000                       # number of ReadCleanReq MSHR misses
system.l2.ReadCleanReq_mshr_misses::total         1000                       # number of ReadCleanReq MSHR misses
system.l2.ReadSharedReq_mshr_misses::cpu.data       312785                       # number of ReadSharedReq MSHR misses
system.l2.ReadSharedReq_mshr_misses::total       312785                       # number of ReadSharedReq MSHR misses
system.l2.demand_mshr_misses::cpu.inst           1000                       # number of demand (read+write) MSHR misses
system.l2.demand_mshr_misses::cpu.data         615879                       # number of demand (read+write) MSHR misses
system.l2.demand_mshr_misses::total            616879                       # number of demand (read+write) MSHR misses
system.l2.overall_mshr_misses::cpu.inst          1000                       # number of overall MSHR misses
system.l2.overall_mshr_misses::cpu.data        615879                       # number of overall MSHR misses
system.l2.overall_mshr_misses::total           616879                       # number of overall MSHR misses
system.l2.ReadExReq_mshr_miss_latency::cpu.data  22632865000                       # number of ReadExReq MSHR miss cycles
system.l2.ReadExReq_mshr_miss_latency::total  22632865000                       # number of ReadExReq MSHR miss cycles
system.l2.ReadCleanReq_mshr_miss_latency::cpu.inst     65278500                       # number of ReadCleanReq MSHR miss cycles
system.l2.ReadCleanReq_mshr_miss_latency::total     65278500                       # number of ReadCleanReq MSHR miss cycles
system.l2.ReadSharedReq_mshr_miss_latency::cpu.data  22491516500                       # number of ReadSharedReq MSHR miss cycles
system.l2.ReadSharedReq_mshr_miss_latency::total  22491516500                       # number of ReadSharedReq MSHR miss cycles
system.l2.demand_mshr_miss_latency::cpu.inst     65278500                       # number of demand (read+write) MSHR miss cycles
system.l2.demand_mshr_miss_latency::cpu.data  45124381500                       # number of demand (read+write) MSHR miss cycles
system.l2.demand_mshr_miss_latency::total  45189660000                       # number of demand (read+write) MSHR miss cycles
system.l2.overall_mshr_miss_latency::cpu.inst     65278500                       # number of overall MSHR miss cycles
system.l2.overall_mshr_miss_latency::cpu.data  45124381500                       # number of overall MSHR miss cycles
system.l2.overall_mshr_miss_latency::total  45189660000                       # number of overall MSHR miss cycles
system.l2.CleanEvict_mshr_miss_rate::writebacks          inf                       # mshr miss rate for CleanEvict accesses
system.l2.CleanEvict_mshr_miss_rate::total          inf                       # mshr miss rate for CleanEvict accesses
system.l2.ReadExReq_mshr_miss_rate::cpu.data     0.514588                       # mshr miss rate for ReadExReq accesses
system.l2.ReadExReq_mshr_miss_rate::total     0.514588                       # mshr miss rate for ReadExReq accesses
system.l2.ReadCleanReq_mshr_miss_rate::cpu.inst     0.999001                       # mshr miss rate for ReadCleanReq accesses
system.l2.ReadCleanReq_mshr_miss_rate::total     0.999001                       # mshr miss rate for ReadCleanReq accesses
system.l2.ReadSharedReq_mshr_miss_rate::cpu.data     0.214887                       # mshr miss rate for ReadSharedReq accesses
system.l2.ReadSharedReq_mshr_miss_rate::total     0.214887                       # mshr miss rate for ReadSharedReq accesses
system.l2.demand_mshr_miss_rate::cpu.inst     0.999001                       # mshr miss rate for demand accesses
system.l2.demand_mshr_miss_rate::cpu.data     0.301225                       # mshr miss rate for demand accesses
system.l2.demand_mshr_miss_rate::total       0.301567                       # mshr miss rate for demand accesses
system.l2.overall_mshr_miss_rate::cpu.inst     0.999001                       # mshr miss rate for overall accesses
system.l2.overall_mshr_miss_rate::cpu.data     0.301225                       # mshr miss rate for overall accesses
system.l2.overall_mshr_miss_rate::total      0.301567                       # mshr miss rate for overall accesses
system.l2.ReadExReq_avg_mshr_miss_latency::cpu.data 74672.758286                       # average ReadExReq mshr miss latency
system.l2.ReadExReq_avg_mshr_miss_latency::total 74672.758286                       # average ReadExReq mshr miss latency
system.l2.ReadCleanReq_avg_mshr_miss_latency::cpu.inst 65278.500000                       # average ReadCleanReq mshr miss latency
system.l2.ReadCleanReq_avg_mshr_miss_latency::total 65278.500000                       # average ReadCleanReq mshr miss latency
system.l2.ReadSharedReq_avg_mshr_miss_latency::cpu.data 71907.273367                       # average ReadSharedReq mshr miss latency
system.l2.ReadSharedReq_avg_mshr_miss_latency::total 71907.273367                       # average ReadSharedReq mshr miss latency
system.l2.demand_avg_mshr_miss_latency::cpu.inst 65278.500000                       # average overall mshr miss latency
system.l2.demand_avg_mshr_miss_latency::cpu.data 73268.258051                       # average overall mshr miss latency
system.l2.demand_avg_mshr_miss_latency::total 73255.306146                       # average overall mshr miss latency
system.l2.overall_avg_mshr_miss_latency::cpu.inst 65278.500000                       # average overall mshr miss latency
system.l2.overall_avg_mshr_miss_latency::cpu.data 73268.258051                       # average overall mshr miss latency
system.l2.overall_avg_mshr_miss_latency::total 73255.306146                       # average overall mshr miss latency
system.l2.no_allocate_misses                        0                       # Number of misses that were no-allocate
system.membus.trans_dist::ReadResp             313785                       # Transaction distribution
system.membus.trans_dist::WritebackDirty       370432                       # Transaction distribution
system.membus.trans_dist::CleanEvict           229059                       # Transaction distribution
system.membus.trans_dist::ReadExReq            303094                       # Transaction distribution
system.membus.trans_dist::ReadExResp           303094                       # Transaction distribution
system.membus.trans_dist::ReadSharedReq        313785                       # Transaction distribution
system.membus.pkt_count_system.l2.mem_side::system.mem_ctrls.port      1833249                       # Packet count per connected master and slave (bytes)
system.membus.pkt_count_system.l2.mem_side::total      1833249                       # Packet count per connected master and slave (bytes)
system.membus.pkt_count::total                1833249                       # Packet count per connected master and slave (bytes)
system.membus.pkt_size_system.l2.mem_side::system.mem_ctrls.port     63187904                       # Cumulative packet size per connected master and slave (bytes)
system.membus.pkt_size_system.l2.mem_side::total     63187904                       # Cumulative packet size per connected master and slave (bytes)
system.membus.pkt_size::total                63187904                       # Cumulative packet size per connected master and slave (bytes)
system.membus.snoops                                0                       # Total snoops (count)
system.membus.snoop_fanout::samples           1216370                       # Request fanout histogram
system.membus.snoop_fanout::mean                    0                       # Request fanout histogram
system.membus.snoop_fanout::stdev                   0                       # Request fanout histogram
system.membus.snoop_fanout::underflows              0      0.00%      0.00% # Request fanout histogram
system.membus.snoop_fanout::0                 1216370    100.00%    100.00% # Request fanout histogram
system.membus.snoop_fanout::1                       0      0.00%    100.00% # Request fanout histogram
system.membus.snoop_fanout::overflows               0      0.00%    100.00% # Request fanout histogram
system.membus.snoop_fanout::min_value               0                       # Request fanout histogram
system.membus.snoop_fanout::max_value               0                       # Request fanout histogram
system.membus.snoop_fanout::total             1216370                       # Request fanout histogram
system.membus.reqLayer2.occupancy          2706067000                       # Layer occupancy (ticks)
system.membus.reqLayer2.utilization               0.3                       # Layer utilization (%)
system.membus.respLayer1.occupancy         3336387250                       # Layer occupancy (ticks)
system.membus.respLayer1.utilization              0.3                       # Layer utilization (%)
system.tol2bus.snoop_filter.tot_requests      4088156                       # Total number of requests made to the snoop filter.
system.tol2bus.snoop_filter.hit_single_requests      2042576                       # Number of requests hitting in the snoop filter with a single holder of the requested data.
system.tol2bus.snoop_filter.hit_multi_requests            1                       # Number of requests hitting in the snoop filter with multiple (>1) holders of the requested data.
system.tol2bus.snoop_filter.tot_snoops            753                       # Total number of snoops made to the snoop filter.
system.tol2bus.snoop_filter.hit_single_snoops          753                       # Number of snoops hitting in the snoop filter with a single holder of the requested data.
system.tol2bus.snoop_filter.hit_multi_snoops            0                       # Number of snoops hitting in the snoop filter with multiple (>1) holders of the requested data.
system.tol2bus.trans_dist::ReadResp           1456577                       # Transaction distribution
system.tol2bus.trans_dist::WritebackDirty      1326753                       # Transaction distribution
system.tol2bus.trans_dist::WritebackClean           45                       # Transaction distribution
system.tol2bus.trans_dist::CleanEvict         1316003                       # Transaction distribution
system.tol2bus.trans_dist::ReadExReq           589003                       # Transaction distribution
system.tol2bus.trans_dist::ReadExResp          589003                       # Transaction distribution
system.tol2bus.trans_dist::ReadCleanReq          1001                       # Transaction distribution
system.tol2bus.trans_dist::ReadSharedReq      1455576                       # Transaction distribution
system.tol2bus.pkt_count_system.cpu.icache.mem_side::system.l2.cpu_side         2047                       # Packet count per connected master and slave (bytes)
system.tol2bus.pkt_count_system.cpu.dcache.mem_side::system.l2.cpu_side      6131688                       # Packet count per connected master and slave (bytes)
system.tol2bus.pkt_count::total               6133735                       # Packet count per connected master and slave (bytes)
system.tol2bus.pkt_size_system.cpu.icache.mem_side::system.l2.cpu_side        66944                       # Cumulative packet size per connected master and slave (bytes)
system.tol2bus.pkt_size_system.cpu.dcache.mem_side::system.l2.cpu_side    192057600                       # Cumulative packet size per connected master and slave (bytes)
system.tol2bus.pkt_size::total              192124544                       # Cumulative packet size per connected master and slave (bytes)
system.tol2bus.snoops                          600226                       # Total snoops (count)
system.tol2bus.snoop_fanout::samples          2645806                       # Request fanout histogram
system.tol2bus.snoop_fanout::mean            0.000285                       # Request fanout histogram
system.tol2bus.snoop_fanout::stdev           0.016879                       # Request fanout histogram
system.tol2bus.snoop_fanout::underflows             0      0.00%      0.00% # Request fanout histogram
system.tol2bus.snoop_fanout::0                2645052     99.97%     99.97% # Request fanout histogram
system.tol2bus.snoop_fanout::1                    754      0.03%    100.00% # Request fanout histogram
system.tol2bus.snoop_fanout::2                      0      0.00%    100.00% # Request fanout histogram
system.tol2bus.snoop_fanout::3                      0      0.00%    100.00% # Request fanout histogram
system.tol2bus.snoop_fanout::4                      0      0.00%    100.00% # Request fanout histogram
system.tol2bus.snoop_fanout::overflows              0      0.00%    100.00% # Request fanout histogram
system.tol2bus.snoop_fanout::min_value              0                       # Request fanout histogram
system.tol2bus.snoop_fanout::max_value              1                       # Request fanout histogram
system.tol2bus.snoop_fanout::total            2645806                       # Request fanout histogram
system.tol2bus.reqLayer0.occupancy         3000444000                       # Layer occupancy (ticks)
system.tol2bus.reqLayer0.utilization              0.3                       # Layer utilization (%)
system.tol2bus.respLayer0.occupancy           1501500                       # Layer occupancy (ticks)
system.tol2bus.respLayer0.utilization             0.0                       # Layer utilization (%)
system.tol2bus.respLayer1.occupancy        3066868500                       # Layer occupancy (ticks)
system.tol2bus.respLayer1.utilization             0.3                       # Layer utilization (%)

---------- End Simulation Statistics   ----------
