
---------- Begin Simulation Statistics ----------
sim_seconds                                  1.157084                       # Number of seconds simulated
sim_ticks                                1157083999500                       # Number of ticks simulated
final_tick                               1157083999500                       # Number of ticks from beginning of simulation (restored from checkpoints and never reset)
sim_freq                                 1000000000000                       # Frequency of simulated ticks
host_inst_rate                                  37717                       # Simulator instruction rate (inst/s)
host_op_rate                                    55102                       # Simulator op (including micro ops) rate (op/s)
host_tick_rate                               87284585                       # Simulator tick rate (ticks/s)
host_mem_usage                                 826232                       # Number of bytes of host memory used
host_seconds                                 13256.45                       # Real time elapsed on the host
sim_insts                                   500000001                       # Number of instructions simulated
sim_ops                                     730450447                       # Number of ops (including micro ops) simulated
system.voltage_domain.voltage                       1                       # Voltage in Volts
system.clk_domain.clock                          1000                       # Clock period in ticks
system.mem_ctrls.bytes_read::cpu.inst           63616                       # Number of bytes read from this memory
system.mem_ctrls.bytes_read::cpu.data       129935232                       # Number of bytes read from this memory
system.mem_ctrls.bytes_read::total          129998848                       # Number of bytes read from this memory
system.mem_ctrls.bytes_inst_read::cpu.inst        63616                       # Number of instructions bytes read from this memory
system.mem_ctrls.bytes_inst_read::total         63616                       # Number of instructions bytes read from this memory
system.mem_ctrls.bytes_written::writebacks     54847680                       # Number of bytes written to this memory
system.mem_ctrls.bytes_written::total        54847680                       # Number of bytes written to this memory
system.mem_ctrls.num_reads::cpu.inst              994                       # Number of read requests responded to by this memory
system.mem_ctrls.num_reads::cpu.data          2030238                       # Number of read requests responded to by this memory
system.mem_ctrls.num_reads::total             2031232                       # Number of read requests responded to by this memory
system.mem_ctrls.num_writes::writebacks        856995                       # Number of write requests responded to by this memory
system.mem_ctrls.num_writes::total             856995                       # Number of write requests responded to by this memory
system.mem_ctrls.bw_read::cpu.inst              54980                       # Total read bandwidth from this memory (bytes/s)
system.mem_ctrls.bw_read::cpu.data          112295419                       # Total read bandwidth from this memory (bytes/s)
system.mem_ctrls.bw_read::total             112350398                       # Total read bandwidth from this memory (bytes/s)
system.mem_ctrls.bw_inst_read::cpu.inst         54980                       # Instruction read bandwidth from this memory (bytes/s)
system.mem_ctrls.bw_inst_read::total            54980                       # Instruction read bandwidth from this memory (bytes/s)
system.mem_ctrls.bw_write::writebacks        47401641                       # Write bandwidth from this memory (bytes/s)
system.mem_ctrls.bw_write::total             47401641                       # Write bandwidth from this memory (bytes/s)
system.mem_ctrls.bw_total::writebacks        47401641                       # Total bandwidth to/from this memory (bytes/s)
system.mem_ctrls.bw_total::cpu.inst             54980                       # Total bandwidth to/from this memory (bytes/s)
system.mem_ctrls.bw_total::cpu.data         112295419                       # Total bandwidth to/from this memory (bytes/s)
system.mem_ctrls.bw_total::total            159752039                       # Total bandwidth to/from this memory (bytes/s)
system.mem_ctrls.readReqs                     2031232                       # Number of read requests accepted
system.mem_ctrls.writeReqs                     856995                       # Number of write requests accepted
system.mem_ctrls.readBursts                   2031232                       # Number of DRAM read bursts, including those serviced by the write queue
system.mem_ctrls.writeBursts                   856995                       # Number of DRAM write bursts, including those merged in the write queue
system.mem_ctrls.bytesReadDRAM              128263488                       # Total number of bytes read from DRAM
system.mem_ctrls.bytesReadWrQ                 1735360                       # Total number of bytes read from write queue
system.mem_ctrls.bytesWritten                54571328                       # Total number of bytes written to DRAM
system.mem_ctrls.bytesReadSys               129998848                       # Total read bytes from the system interface side
system.mem_ctrls.bytesWrittenSys             54847680                       # Total written bytes from the system interface side
system.mem_ctrls.servicedByWrQ                  27115                       # Number of DRAM read bursts serviced by the write queue
system.mem_ctrls.mergedWrBursts                  4294                       # Number of DRAM write bursts merged with an existing one
system.mem_ctrls.neitherReadNorWriteReqs      1171230                       # Number of requests that are neither read nor write
system.mem_ctrls.perBankRdBursts::0            126155                       # Per bank write bursts
system.mem_ctrls.perBankRdBursts::1            125154                       # Per bank write bursts
system.mem_ctrls.perBankRdBursts::2            129959                       # Per bank write bursts
system.mem_ctrls.perBankRdBursts::3            122005                       # Per bank write bursts
system.mem_ctrls.perBankRdBursts::4            120643                       # Per bank write bursts
system.mem_ctrls.perBankRdBursts::5            120356                       # Per bank write bursts
system.mem_ctrls.perBankRdBursts::6            133154                       # Per bank write bursts
system.mem_ctrls.perBankRdBursts::7            131016                       # Per bank write bursts
system.mem_ctrls.perBankRdBursts::8            108132                       # Per bank write bursts
system.mem_ctrls.perBankRdBursts::9            107879                       # Per bank write bursts
system.mem_ctrls.perBankRdBursts::10           121798                       # Per bank write bursts
system.mem_ctrls.perBankRdBursts::11           125233                       # Per bank write bursts
system.mem_ctrls.perBankRdBursts::12           125085                       # Per bank write bursts
system.mem_ctrls.perBankRdBursts::13           124960                       # Per bank write bursts
system.mem_ctrls.perBankRdBursts::14           136586                       # Per bank write bursts
system.mem_ctrls.perBankRdBursts::15           146002                       # Per bank write bursts
system.mem_ctrls.perBankWrBursts::0             52773                       # Per bank write bursts
system.mem_ctrls.perBankWrBursts::1             50448                       # Per bank write bursts
system.mem_ctrls.perBankWrBursts::2             57265                       # Per bank write bursts
system.mem_ctrls.perBankWrBursts::3             52127                       # Per bank write bursts
system.mem_ctrls.perBankWrBursts::4             45784                       # Per bank write bursts
system.mem_ctrls.perBankWrBursts::5             46638                       # Per bank write bursts
system.mem_ctrls.perBankWrBursts::6             55288                       # Per bank write bursts
system.mem_ctrls.perBankWrBursts::7             60585                       # Per bank write bursts
system.mem_ctrls.perBankWrBursts::8             49362                       # Per bank write bursts
system.mem_ctrls.perBankWrBursts::9             48090                       # Per bank write bursts
system.mem_ctrls.perBankWrBursts::10            51944                       # Per bank write bursts
system.mem_ctrls.perBankWrBursts::11            51871                       # Per bank write bursts
system.mem_ctrls.perBankWrBursts::12            47399                       # Per bank write bursts
system.mem_ctrls.perBankWrBursts::13            49032                       # Per bank write bursts
system.mem_ctrls.perBankWrBursts::14            58788                       # Per bank write bursts
system.mem_ctrls.perBankWrBursts::15            75283                       # Per bank write bursts
system.mem_ctrls.numRdRetry                         0                       # Number of times read queue was full causing retry
system.mem_ctrls.numWrRetry                         0                       # Number of times write queue was full causing retry
system.mem_ctrls.totGap                  1157051172500                       # Total gap between requests
system.mem_ctrls.readPktSize::0                     0                       # Read request sizes (log2)
system.mem_ctrls.readPktSize::1                     0                       # Read request sizes (log2)
system.mem_ctrls.readPktSize::2                     0                       # Read request sizes (log2)
system.mem_ctrls.readPktSize::3                     0                       # Read request sizes (log2)
system.mem_ctrls.readPktSize::4                     0                       # Read request sizes (log2)
system.mem_ctrls.readPktSize::5                     0                       # Read request sizes (log2)
system.mem_ctrls.readPktSize::6               2031232                       # Read request sizes (log2)
system.mem_ctrls.writePktSize::0                    0                       # Write request sizes (log2)
system.mem_ctrls.writePktSize::1                    0                       # Write request sizes (log2)
system.mem_ctrls.writePktSize::2                    0                       # Write request sizes (log2)
system.mem_ctrls.writePktSize::3                    0                       # Write request sizes (log2)
system.mem_ctrls.writePktSize::4                    0                       # Write request sizes (log2)
system.mem_ctrls.writePktSize::5                    0                       # Write request sizes (log2)
system.mem_ctrls.writePktSize::6               856995                       # Write request sizes (log2)
system.mem_ctrls.rdQLenPdf::0                 1995159                       # What read queue length does an incoming req see
system.mem_ctrls.rdQLenPdf::1                    7658                       # What read queue length does an incoming req see
system.mem_ctrls.rdQLenPdf::2                     779                       # What read queue length does an incoming req see
system.mem_ctrls.rdQLenPdf::3                     521                       # What read queue length does an incoming req see
system.mem_ctrls.rdQLenPdf::4                       0                       # What read queue length does an incoming req see
system.mem_ctrls.rdQLenPdf::5                       0                       # What read queue length does an incoming req see
system.mem_ctrls.rdQLenPdf::6                       0                       # What read queue length does an incoming req see
system.mem_ctrls.rdQLenPdf::7                       0                       # What read queue length does an incoming req see
system.mem_ctrls.rdQLenPdf::8                       0                       # What read queue length does an incoming req see
system.mem_ctrls.rdQLenPdf::9                       0                       # What read queue length does an incoming req see
system.mem_ctrls.rdQLenPdf::10                      0                       # What read queue length does an incoming req see
system.mem_ctrls.rdQLenPdf::11                      0                       # What read queue length does an incoming req see
system.mem_ctrls.rdQLenPdf::12                      0                       # What read queue length does an incoming req see
system.mem_ctrls.rdQLenPdf::13                      0                       # What read queue length does an incoming req see
system.mem_ctrls.rdQLenPdf::14                      0                       # What read queue length does an incoming req see
system.mem_ctrls.rdQLenPdf::15                      0                       # What read queue length does an incoming req see
system.mem_ctrls.rdQLenPdf::16                      0                       # What read queue length does an incoming req see
system.mem_ctrls.rdQLenPdf::17                      0                       # What read queue length does an incoming req see
system.mem_ctrls.rdQLenPdf::18                      0                       # What read queue length does an incoming req see
system.mem_ctrls.rdQLenPdf::19                      0                       # What read queue length does an incoming req see
system.mem_ctrls.rdQLenPdf::20                      0                       # What read queue length does an incoming req see
system.mem_ctrls.rdQLenPdf::21                      0                       # What read queue length does an incoming req see
system.mem_ctrls.rdQLenPdf::22                      0                       # What read queue length does an incoming req see
system.mem_ctrls.rdQLenPdf::23                      0                       # What read queue length does an incoming req see
system.mem_ctrls.rdQLenPdf::24                      0                       # What read queue length does an incoming req see
system.mem_ctrls.rdQLenPdf::25                      0                       # What read queue length does an incoming req see
system.mem_ctrls.rdQLenPdf::26                      0                       # What read queue length does an incoming req see
system.mem_ctrls.rdQLenPdf::27                      0                       # What read queue length does an incoming req see
system.mem_ctrls.rdQLenPdf::28                      0                       # What read queue length does an incoming req see
system.mem_ctrls.rdQLenPdf::29                      0                       # What read queue length does an incoming req see
system.mem_ctrls.rdQLenPdf::30                      0                       # What read queue length does an incoming req see
system.mem_ctrls.rdQLenPdf::31                      0                       # What read queue length does an incoming req see
system.mem_ctrls.wrQLenPdf::0                       1                       # What write queue length does an incoming req see
system.mem_ctrls.wrQLenPdf::1                       1                       # What write queue length does an incoming req see
system.mem_ctrls.wrQLenPdf::2                       1                       # What write queue length does an incoming req see
system.mem_ctrls.wrQLenPdf::3                       1                       # What write queue length does an incoming req see
system.mem_ctrls.wrQLenPdf::4                       1                       # What write queue length does an incoming req see
system.mem_ctrls.wrQLenPdf::5                       1                       # What write queue length does an incoming req see
system.mem_ctrls.wrQLenPdf::6                       1                       # What write queue length does an incoming req see
system.mem_ctrls.wrQLenPdf::7                       1                       # What write queue length does an incoming req see
system.mem_ctrls.wrQLenPdf::8                       1                       # What write queue length does an incoming req see
system.mem_ctrls.wrQLenPdf::9                       1                       # What write queue length does an incoming req see
system.mem_ctrls.wrQLenPdf::10                      1                       # What write queue length does an incoming req see
system.mem_ctrls.wrQLenPdf::11                      1                       # What write queue length does an incoming req see
system.mem_ctrls.wrQLenPdf::12                      1                       # What write queue length does an incoming req see
system.mem_ctrls.wrQLenPdf::13                      1                       # What write queue length does an incoming req see
system.mem_ctrls.wrQLenPdf::14                      1                       # What write queue length does an incoming req see
system.mem_ctrls.wrQLenPdf::15                  26901                       # What write queue length does an incoming req see
system.mem_ctrls.wrQLenPdf::16                  30625                       # What write queue length does an incoming req see
system.mem_ctrls.wrQLenPdf::17                  49771                       # What write queue length does an incoming req see
system.mem_ctrls.wrQLenPdf::18                  49824                       # What write queue length does an incoming req see
system.mem_ctrls.wrQLenPdf::19                  49707                       # What write queue length does an incoming req see
system.mem_ctrls.wrQLenPdf::20                  49688                       # What write queue length does an incoming req see
system.mem_ctrls.wrQLenPdf::21                  49683                       # What write queue length does an incoming req see
system.mem_ctrls.wrQLenPdf::22                  49679                       # What write queue length does an incoming req see
system.mem_ctrls.wrQLenPdf::23                  49680                       # What write queue length does an incoming req see
system.mem_ctrls.wrQLenPdf::24                  49678                       # What write queue length does an incoming req see
system.mem_ctrls.wrQLenPdf::25                  49680                       # What write queue length does an incoming req see
system.mem_ctrls.wrQLenPdf::26                  49682                       # What write queue length does an incoming req see
system.mem_ctrls.wrQLenPdf::27                  49683                       # What write queue length does an incoming req see
system.mem_ctrls.wrQLenPdf::28                  49678                       # What write queue length does an incoming req see
system.mem_ctrls.wrQLenPdf::29                  49687                       # What write queue length does an incoming req see
system.mem_ctrls.wrQLenPdf::30                  49677                       # What write queue length does an incoming req see
system.mem_ctrls.wrQLenPdf::31                  49677                       # What write queue length does an incoming req see
system.mem_ctrls.wrQLenPdf::32                  49677                       # What write queue length does an incoming req see
system.mem_ctrls.wrQLenPdf::33                      8                       # What write queue length does an incoming req see
system.mem_ctrls.wrQLenPdf::34                      1                       # What write queue length does an incoming req see
system.mem_ctrls.wrQLenPdf::35                      0                       # What write queue length does an incoming req see
system.mem_ctrls.wrQLenPdf::36                      0                       # What write queue length does an incoming req see
system.mem_ctrls.wrQLenPdf::37                      0                       # What write queue length does an incoming req see
system.mem_ctrls.wrQLenPdf::38                      0                       # What write queue length does an incoming req see
system.mem_ctrls.wrQLenPdf::39                      0                       # What write queue length does an incoming req see
system.mem_ctrls.wrQLenPdf::40                      0                       # What write queue length does an incoming req see
system.mem_ctrls.wrQLenPdf::41                      0                       # What write queue length does an incoming req see
system.mem_ctrls.wrQLenPdf::42                      0                       # What write queue length does an incoming req see
system.mem_ctrls.wrQLenPdf::43                      0                       # What write queue length does an incoming req see
system.mem_ctrls.wrQLenPdf::44                      0                       # What write queue length does an incoming req see
system.mem_ctrls.wrQLenPdf::45                      0                       # What write queue length does an incoming req see
system.mem_ctrls.wrQLenPdf::46                      0                       # What write queue length does an incoming req see
system.mem_ctrls.wrQLenPdf::47                      0                       # What write queue length does an incoming req see
system.mem_ctrls.wrQLenPdf::48                      0                       # What write queue length does an incoming req see
system.mem_ctrls.wrQLenPdf::49                      0                       # What write queue length does an incoming req see
system.mem_ctrls.wrQLenPdf::50                      0                       # What write queue length does an incoming req see
system.mem_ctrls.wrQLenPdf::51                      0                       # What write queue length does an incoming req see
system.mem_ctrls.wrQLenPdf::52                      0                       # What write queue length does an incoming req see
system.mem_ctrls.wrQLenPdf::53                      0                       # What write queue length does an incoming req see
system.mem_ctrls.wrQLenPdf::54                      0                       # What write queue length does an incoming req see
system.mem_ctrls.wrQLenPdf::55                      0                       # What write queue length does an incoming req see
system.mem_ctrls.wrQLenPdf::56                      0                       # What write queue length does an incoming req see
system.mem_ctrls.wrQLenPdf::57                      0                       # What write queue length does an incoming req see
system.mem_ctrls.wrQLenPdf::58                      0                       # What write queue length does an incoming req see
system.mem_ctrls.wrQLenPdf::59                      0                       # What write queue length does an incoming req see
system.mem_ctrls.wrQLenPdf::60                      0                       # What write queue length does an incoming req see
system.mem_ctrls.wrQLenPdf::61                      0                       # What write queue length does an incoming req see
system.mem_ctrls.wrQLenPdf::62                      0                       # What write queue length does an incoming req see
system.mem_ctrls.wrQLenPdf::63                      0                       # What write queue length does an incoming req see
system.mem_ctrls.bytesPerActivate::samples      1684615                       # Bytes accessed per row activation
system.mem_ctrls.bytesPerActivate::mean    108.532107                       # Bytes accessed per row activation
system.mem_ctrls.bytesPerActivate::gmean    86.338049                       # Bytes accessed per row activation
system.mem_ctrls.bytesPerActivate::stdev   119.034645                       # Bytes accessed per row activation
system.mem_ctrls.bytesPerActivate::0-127      1205138     71.54%     71.54% # Bytes accessed per row activation
system.mem_ctrls.bytesPerActivate::128-255       363109     21.55%     93.09% # Bytes accessed per row activation
system.mem_ctrls.bytesPerActivate::256-383        51180      3.04%     96.13% # Bytes accessed per row activation
system.mem_ctrls.bytesPerActivate::384-511        16539      0.98%     97.11% # Bytes accessed per row activation
system.mem_ctrls.bytesPerActivate::512-639        30081      1.79%     98.90% # Bytes accessed per row activation
system.mem_ctrls.bytesPerActivate::640-767         3544      0.21%     99.11% # Bytes accessed per row activation
system.mem_ctrls.bytesPerActivate::768-895         2069      0.12%     99.23% # Bytes accessed per row activation
system.mem_ctrls.bytesPerActivate::896-1023         1574      0.09%     99.32% # Bytes accessed per row activation
system.mem_ctrls.bytesPerActivate::1024-1151        11381      0.68%    100.00% # Bytes accessed per row activation
system.mem_ctrls.bytesPerActivate::total      1684615                       # Bytes accessed per row activation
system.mem_ctrls.rdPerTurnAround::samples        49677                       # Reads before turning the bus around for writes
system.mem_ctrls.rdPerTurnAround::mean      40.317088                       # Reads before turning the bus around for writes
system.mem_ctrls.rdPerTurnAround::gmean     24.942188                       # Reads before turning the bus around for writes
system.mem_ctrls.rdPerTurnAround::stdev    182.049342                       # Reads before turning the bus around for writes
system.mem_ctrls.rdPerTurnAround::0-1023        49566     99.78%     99.78% # Reads before turning the bus around for writes
system.mem_ctrls.rdPerTurnAround::1024-2047           89      0.18%     99.96% # Reads before turning the bus around for writes
system.mem_ctrls.rdPerTurnAround::2048-3071           18      0.04%     99.99% # Reads before turning the bus around for writes
system.mem_ctrls.rdPerTurnAround::3072-4095            1      0.00%     99.99% # Reads before turning the bus around for writes
system.mem_ctrls.rdPerTurnAround::8192-9215            1      0.00%    100.00% # Reads before turning the bus around for writes
system.mem_ctrls.rdPerTurnAround::10240-11263            1      0.00%    100.00% # Reads before turning the bus around for writes
system.mem_ctrls.rdPerTurnAround::29696-30719            1      0.00%    100.00% # Reads before turning the bus around for writes
system.mem_ctrls.rdPerTurnAround::total         49677                       # Reads before turning the bus around for writes
system.mem_ctrls.wrPerTurnAround::samples        49677                       # Writes before turning the bus around for reads
system.mem_ctrls.wrPerTurnAround::mean      17.164422                       # Writes before turning the bus around for reads
system.mem_ctrls.wrPerTurnAround::gmean     17.137297                       # Writes before turning the bus around for reads
system.mem_ctrls.wrPerTurnAround::stdev      0.959367                       # Writes before turning the bus around for reads
system.mem_ctrls.wrPerTurnAround::16            19088     38.42%     38.42% # Writes before turning the bus around for reads
system.mem_ctrls.wrPerTurnAround::17             3688      7.42%     45.85% # Writes before turning the bus around for reads
system.mem_ctrls.wrPerTurnAround::18            26551     53.45%     99.30% # Writes before turning the bus around for reads
system.mem_ctrls.wrPerTurnAround::19              345      0.69%     99.99% # Writes before turning the bus around for reads
system.mem_ctrls.wrPerTurnAround::20                5      0.01%    100.00% # Writes before turning the bus around for reads
system.mem_ctrls.wrPerTurnAround::total         49677                       # Writes before turning the bus around for reads
system.mem_ctrls.totQLat                  32981603750                       # Total ticks spent queuing
system.mem_ctrls.totMemAccLat             70558797500                       # Total ticks spent from burst creation until serviced by the DRAM
system.mem_ctrls.totBusLat                10020585000                       # Total ticks spent in databus transfers
system.mem_ctrls.avgQLat                     16456.93                       # Average queueing delay per DRAM burst
system.mem_ctrls.avgBusLat                    5000.00                       # Average bus latency per DRAM burst
system.mem_ctrls.avgMemAccLat                35206.93                       # Average memory access latency per DRAM burst
system.mem_ctrls.avgRdBW                       110.85                       # Average DRAM read bandwidth in MiByte/s
system.mem_ctrls.avgWrBW                        47.16                       # Average achieved write bandwidth in MiByte/s
system.mem_ctrls.avgRdBWSys                    112.35                       # Average system read bandwidth in MiByte/s
system.mem_ctrls.avgWrBWSys                     47.40                       # Average system write bandwidth in MiByte/s
system.mem_ctrls.peakBW                      12800.00                       # Theoretical peak bandwidth in MiByte/s
system.mem_ctrls.busUtil                         1.23                       # Data bus utilization in percentage
system.mem_ctrls.busUtilRead                     0.87                       # Data bus utilization in percentage for reads
system.mem_ctrls.busUtilWrite                    0.37                       # Data bus utilization in percentage for writes
system.mem_ctrls.avgRdQLen                       1.00                       # Average read queue length when enqueuing
system.mem_ctrls.avgWrQLen                      25.11                       # Average write queue length when enqueuing
system.mem_ctrls.readRowHits                   834444                       # Number of row buffer hits during reads
system.mem_ctrls.writeRowHits                  337735                       # Number of row buffer hits during writes
system.mem_ctrls.readRowHitRate                 41.64                       # Row buffer hit rate for reads
system.mem_ctrls.writeRowHitRate                39.61                       # Row buffer hit rate for writes
system.mem_ctrls.avgGap                     400609.50                       # Average gap between requests
system.mem_ctrls.pageHitRate                    41.03                       # Row buffer hit rate, read and write combined
system.mem_ctrls_0.actEnergy               6379861320                       # Energy for activate commands per rank (pJ)
system.mem_ctrls_0.preEnergy               3481075125                       # Energy for precharge commands per rank (pJ)
system.mem_ctrls_0.readEnergy              7865847600                       # Energy for read commands per rank (pJ)
system.mem_ctrls_0.writeEnergy             2727483840                       # Energy for write commands per rank (pJ)
system.mem_ctrls_0.refreshEnergy          75575067360                       # Energy for refresh commands per rank (pJ)
system.mem_ctrls_0.actBackEnergy         387280529820                       # Energy for active background per rank (pJ)
system.mem_ctrls_0.preBackEnergy         354530465250                       # Energy for precharge background per rank (pJ)
system.mem_ctrls_0.totalEnergy           837840330315                       # Total energy per rank (pJ)
system.mem_ctrls_0.averagePower            724.096554                       # Core power per rank (mW)
system.mem_ctrls_0.memoryStateTime::IDLE 587499350000                       # Time in different power states
system.mem_ctrls_0.memoryStateTime::REF   38637560000                       # Time in different power states
system.mem_ctrls_0.memoryStateTime::PRE_PDN            0                       # Time in different power states
system.mem_ctrls_0.memoryStateTime::ACT  530946817500                       # Time in different power states
system.mem_ctrls_0.memoryStateTime::ACT_PDN            0                       # Time in different power states
system.mem_ctrls_1.actEnergy               6355828080                       # Energy for activate commands per rank (pJ)
system.mem_ctrls_1.preEnergy               3467961750                       # Energy for precharge commands per rank (pJ)
system.mem_ctrls_1.readEnergy              7766265000                       # Energy for read commands per rank (pJ)
system.mem_ctrls_1.writeEnergy             2797863120                       # Energy for write commands per rank (pJ)
system.mem_ctrls_1.refreshEnergy          75575067360                       # Energy for refresh commands per rank (pJ)
system.mem_ctrls_1.actBackEnergy         388174783725                       # Energy for active background per rank (pJ)
system.mem_ctrls_1.preBackEnergy         353746032000                       # Energy for precharge background per rank (pJ)
system.mem_ctrls_1.totalEnergy           837883801035                       # Total energy per rank (pJ)
system.mem_ctrls_1.averagePower            724.134124                       # Core power per rank (mW)
system.mem_ctrls_1.memoryStateTime::IDLE 586173193500                       # Time in different power states
system.mem_ctrls_1.memoryStateTime::REF   38637560000                       # Time in different power states
system.mem_ctrls_1.memoryStateTime::PRE_PDN            0                       # Time in different power states
system.mem_ctrls_1.memoryStateTime::ACT  532272974000                       # Time in different power states
system.mem_ctrls_1.memoryStateTime::ACT_PDN            0                       # Time in different power states
system.cpu_voltage_domain.voltage                   1                       # Voltage in Volts
system.cpu_clk_domain.clock                       500                       # Clock period in ticks
system.cpu.apic_clk_domain.clock                 8000                       # Clock period in ticks
system.cpu.workload.num_syscalls                   86                       # Number of system calls
system.cpu.numCycles                       2314167999                       # number of cpu cycles simulated
system.cpu.numWorkItemsStarted                      0                       # number of work items this cpu started
system.cpu.numWorkItemsCompleted                    0                       # number of work items this cpu completed
system.cpu.committedInsts                   500000001                       # Number of instructions committed
system.cpu.committedOps                     730450447                       # Number of ops (including micro ops) committed
system.cpu.num_int_alu_accesses             729688907                       # Number of integer alu accesses
system.cpu.num_fp_alu_accesses                    663                       # Number of float alu accesses
system.cpu.num_func_calls                     1453961                       # number of times a function call or return occured
system.cpu.num_conditional_control_insts     31770496                       # number of instructions that are conditional controls
system.cpu.num_int_insts                    729688907                       # number of integer instructions
system.cpu.num_fp_insts                           663                       # number of float instructions
system.cpu.num_int_register_reads          1698743410                       # number of times the integer registers were read
system.cpu.num_int_register_writes          621892952                       # number of times the integer registers were written
system.cpu.num_fp_register_reads                 1009                       # number of times the floating registers were read
system.cpu.num_fp_register_writes                 429                       # number of times the floating registers were written
system.cpu.num_cc_register_reads            180840558                       # number of times the CC registers were read
system.cpu.num_cc_register_writes           276245127                       # number of times the CC registers were written
system.cpu.num_mem_refs                     295985459                       # number of memory refs
system.cpu.num_load_insts                   225946750                       # Number of load instructions
system.cpu.num_store_insts                   70038709                       # Number of store instructions
system.cpu.num_idle_cycles                          0                       # Number of idle cycles
system.cpu.num_busy_cycles                 2314167999                       # Number of busy cycles
system.cpu.not_idle_fraction                        1                       # Percentage of non-idle cycles
system.cpu.idle_fraction                            0                       # Percentage of idle cycles
system.cpu.Branches                          37843296                       # Number of branches fetched
system.cpu.op_class::No_OpClass                 94739      0.01%      0.01% # Class of executed instruction
system.cpu.op_class::IntAlu                 434349070     59.46%     59.48% # Class of executed instruction
system.cpu.op_class::IntMult                    20662      0.00%     59.48% # Class of executed instruction
system.cpu.op_class::IntDiv                       119      0.00%     59.48% # Class of executed instruction
system.cpu.op_class::FloatAdd                     398      0.00%     59.48% # Class of executed instruction
system.cpu.op_class::FloatCmp                       0      0.00%     59.48% # Class of executed instruction
system.cpu.op_class::FloatCvt                       0      0.00%     59.48% # Class of executed instruction
system.cpu.op_class::FloatMult                      0      0.00%     59.48% # Class of executed instruction
system.cpu.op_class::FloatDiv                       0      0.00%     59.48% # Class of executed instruction
system.cpu.op_class::FloatSqrt                      0      0.00%     59.48% # Class of executed instruction
system.cpu.op_class::SimdAdd                        0      0.00%     59.48% # Class of executed instruction
system.cpu.op_class::SimdAddAcc                     0      0.00%     59.48% # Class of executed instruction
system.cpu.op_class::SimdAlu                        0      0.00%     59.48% # Class of executed instruction
system.cpu.op_class::SimdCmp                        0      0.00%     59.48% # Class of executed instruction
system.cpu.op_class::SimdCvt                        0      0.00%     59.48% # Class of executed instruction
system.cpu.op_class::SimdMisc                       0      0.00%     59.48% # Class of executed instruction
system.cpu.op_class::SimdMult                       0      0.00%     59.48% # Class of executed instruction
system.cpu.op_class::SimdMultAcc                    0      0.00%     59.48% # Class of executed instruction
system.cpu.op_class::SimdShift                      0      0.00%     59.48% # Class of executed instruction
system.cpu.op_class::SimdShiftAcc                   0      0.00%     59.48% # Class of executed instruction
system.cpu.op_class::SimdSqrt                       0      0.00%     59.48% # Class of executed instruction
system.cpu.op_class::SimdFloatAdd                   0      0.00%     59.48% # Class of executed instruction
system.cpu.op_class::SimdFloatAlu                   0      0.00%     59.48% # Class of executed instruction
system.cpu.op_class::SimdFloatCmp                   0      0.00%     59.48% # Class of executed instruction
system.cpu.op_class::SimdFloatCvt                   0      0.00%     59.48% # Class of executed instruction
system.cpu.op_class::SimdFloatDiv                   0      0.00%     59.48% # Class of executed instruction
system.cpu.op_class::SimdFloatMisc                  0      0.00%     59.48% # Class of executed instruction
system.cpu.op_class::SimdFloatMult                  0      0.00%     59.48% # Class of executed instruction
system.cpu.op_class::SimdFloatMultAcc               0      0.00%     59.48% # Class of executed instruction
system.cpu.op_class::SimdFloatSqrt                  0      0.00%     59.48% # Class of executed instruction
system.cpu.op_class::MemRead                225946750     30.93%     90.41% # Class of executed instruction
system.cpu.op_class::MemWrite                70038709      9.59%    100.00% # Class of executed instruction
system.cpu.op_class::IprAccess                      0      0.00%    100.00% # Class of executed instruction
system.cpu.op_class::InstPrefetch                   0      0.00%    100.00% # Class of executed instruction
system.cpu.op_class::total                  730450447                       # Class of executed instruction
system.cpu.dcache.tags.replacements           2042575                       # number of replacements
system.cpu.dcache.tags.tagsinuse          2042.667984                       # Cycle average of tags in use
system.cpu.dcache.tags.total_refs           293940844                       # Total number of references to valid blocks.
system.cpu.dcache.tags.sampled_refs           2044623                       # Sample count of references to valid blocks.
system.cpu.dcache.tags.avg_refs            143.762857                       # Average number of references to valid blocks.
system.cpu.dcache.tags.warmup_cycle        3532723500                       # Cycle when the warmup percentage was hit.
system.cpu.dcache.tags.occ_blocks::cpu.data  2042.667984                       # Average occupied blocks per requestor
system.cpu.dcache.tags.occ_percent::cpu.data     0.997396                       # Average percentage of cache occupancy
system.cpu.dcache.tags.occ_percent::total     0.997396                       # Average percentage of cache occupancy
system.cpu.dcache.tags.occ_task_id_blocks::1024         2048                       # Occupied blocks per task id
system.cpu.dcache.tags.age_task_id_blocks_1024::1            2                       # Occupied blocks per task id
system.cpu.dcache.tags.age_task_id_blocks_1024::2           16                       # Occupied blocks per task id
system.cpu.dcache.tags.age_task_id_blocks_1024::3         1420                       # Occupied blocks per task id
system.cpu.dcache.tags.age_task_id_blocks_1024::4          610                       # Occupied blocks per task id
system.cpu.dcache.tags.occ_task_id_percent::1024            1                       # Percentage of cache occupancy per task id
system.cpu.dcache.tags.tag_accesses         594015557                       # Number of tag accesses
system.cpu.dcache.tags.data_accesses        594015557                       # Number of data accesses
system.cpu.dcache.ReadReq_hits::cpu.data    224491119                       # number of ReadReq hits
system.cpu.dcache.ReadReq_hits::total       224491119                       # number of ReadReq hits
system.cpu.dcache.WriteReq_hits::cpu.data     69449725                       # number of WriteReq hits
system.cpu.dcache.WriteReq_hits::total       69449725                       # number of WriteReq hits
system.cpu.dcache.demand_hits::cpu.data     293940844                       # number of demand (read+write) hits
system.cpu.dcache.demand_hits::total        293940844                       # number of demand (read+write) hits
system.cpu.dcache.overall_hits::cpu.data    293940844                       # number of overall hits
system.cpu.dcache.overall_hits::total       293940844                       # number of overall hits
system.cpu.dcache.ReadReq_misses::cpu.data      1439254                       # number of ReadReq misses
system.cpu.dcache.ReadReq_misses::total       1439254                       # number of ReadReq misses
system.cpu.dcache.WriteReq_misses::cpu.data       588985                       # number of WriteReq misses
system.cpu.dcache.WriteReq_misses::total       588985                       # number of WriteReq misses
system.cpu.dcache.SoftPFReq_misses::cpu.data        16384                       # number of SoftPFReq misses
system.cpu.dcache.SoftPFReq_misses::total        16384                       # number of SoftPFReq misses
system.cpu.dcache.demand_misses::cpu.data      2028239                       # number of demand (read+write) misses
system.cpu.dcache.demand_misses::total        2028239                       # number of demand (read+write) misses
system.cpu.dcache.overall_misses::cpu.data      2044623                       # number of overall misses
system.cpu.dcache.overall_misses::total       2044623                       # number of overall misses
system.cpu.dcache.ReadReq_miss_latency::cpu.data 122244878500                       # number of ReadReq miss cycles
system.cpu.dcache.ReadReq_miss_latency::total 122244878500                       # number of ReadReq miss cycles
system.cpu.dcache.WriteReq_miss_latency::cpu.data  53258774500                       # number of WriteReq miss cycles
system.cpu.dcache.WriteReq_miss_latency::total  53258774500                       # number of WriteReq miss cycles
system.cpu.dcache.demand_miss_latency::cpu.data 175503653000                       # number of demand (read+write) miss cycles
system.cpu.dcache.demand_miss_latency::total 175503653000                       # number of demand (read+write) miss cycles
system.cpu.dcache.overall_miss_latency::cpu.data 175503653000                       # number of overall miss cycles
system.cpu.dcache.overall_miss_latency::total 175503653000                       # number of overall miss cycles
system.cpu.dcache.ReadReq_accesses::cpu.data    225930373                       # number of ReadReq accesses(hits+misses)
system.cpu.dcache.ReadReq_accesses::total    225930373                       # number of ReadReq accesses(hits+misses)
system.cpu.dcache.WriteReq_accesses::cpu.data     70038710                       # number of WriteReq accesses(hits+misses)
system.cpu.dcache.WriteReq_accesses::total     70038710                       # number of WriteReq accesses(hits+misses)
system.cpu.dcache.SoftPFReq_accesses::cpu.data        16384                       # number of SoftPFReq accesses(hits+misses)
system.cpu.dcache.SoftPFReq_accesses::total        16384                       # number of SoftPFReq accesses(hits+misses)
system.cpu.dcache.demand_accesses::cpu.data    295969083                       # number of demand (read+write) accesses
system.cpu.dcache.demand_accesses::total    295969083                       # number of demand (read+write) accesses
system.cpu.dcache.overall_accesses::cpu.data    295985467                       # number of overall (read+write) accesses
system.cpu.dcache.overall_accesses::total    295985467                       # number of overall (read+write) accesses
system.cpu.dcache.ReadReq_miss_rate::cpu.data     0.006370                       # miss rate for ReadReq accesses
system.cpu.dcache.ReadReq_miss_rate::total     0.006370                       # miss rate for ReadReq accesses
system.cpu.dcache.WriteReq_miss_rate::cpu.data     0.008409                       # miss rate for WriteReq accesses
system.cpu.dcache.WriteReq_miss_rate::total     0.008409                       # miss rate for WriteReq accesses
system.cpu.dcache.SoftPFReq_miss_rate::cpu.data            1                       # miss rate for SoftPFReq accesses
system.cpu.dcache.SoftPFReq_miss_rate::total            1                       # miss rate for SoftPFReq accesses
system.cpu.dcache.demand_miss_rate::cpu.data     0.006853                       # miss rate for demand accesses
system.cpu.dcache.demand_miss_rate::total     0.006853                       # miss rate for demand accesses
system.cpu.dcache.overall_miss_rate::cpu.data     0.006908                       # miss rate for overall accesses
system.cpu.dcache.overall_miss_rate::total     0.006908                       # miss rate for overall accesses
system.cpu.dcache.ReadReq_avg_miss_latency::cpu.data 84936.278447                       # average ReadReq miss latency
system.cpu.dcache.ReadReq_avg_miss_latency::total 84936.278447                       # average ReadReq miss latency
system.cpu.dcache.WriteReq_avg_miss_latency::cpu.data 90424.670408                       # average WriteReq miss latency
system.cpu.dcache.WriteReq_avg_miss_latency::total 90424.670408                       # average WriteReq miss latency
system.cpu.dcache.demand_avg_miss_latency::cpu.data 86530.065244                       # average overall miss latency
system.cpu.dcache.demand_avg_miss_latency::total 86530.065244                       # average overall miss latency
system.cpu.dcache.overall_avg_miss_latency::cpu.data 85836.681383                       # average overall miss latency
system.cpu.dcache.overall_avg_miss_latency::total 85836.681383                       # average overall miss latency
system.cpu.dcache.blocked_cycles::no_mshrs       312620                       # number of cycles access was blocked
system.cpu.dcache.blocked_cycles::no_targets            0                       # number of cycles access was blocked
system.cpu.dcache.blocked::no_mshrs              4919                       # number of cycles access was blocked
system.cpu.dcache.blocked::no_targets               0                       # number of cycles access was blocked
system.cpu.dcache.avg_blocked_cycles::no_mshrs    63.553568                       # average number of cycles each access was blocked
system.cpu.dcache.avg_blocked_cycles::no_targets          nan                       # average number of cycles each access was blocked
system.cpu.dcache.fast_writes                       0                       # number of fast writes performed
system.cpu.dcache.cache_copies                      0                       # number of cache copies performed
system.cpu.dcache.writebacks::writebacks       871389                       # number of writebacks
system.cpu.dcache.writebacks::total            871389                       # number of writebacks
system.cpu.dcache.ReadReq_mshr_misses::cpu.data      1439254                       # number of ReadReq MSHR misses
system.cpu.dcache.ReadReq_mshr_misses::total      1439254                       # number of ReadReq MSHR misses
system.cpu.dcache.WriteReq_mshr_misses::cpu.data       588985                       # number of WriteReq MSHR misses
system.cpu.dcache.WriteReq_mshr_misses::total       588985                       # number of WriteReq MSHR misses
system.cpu.dcache.SoftPFReq_mshr_misses::cpu.data        16384                       # number of SoftPFReq MSHR misses
system.cpu.dcache.SoftPFReq_mshr_misses::total        16384                       # number of SoftPFReq MSHR misses
system.cpu.dcache.demand_mshr_misses::cpu.data      2028239                       # number of demand (read+write) MSHR misses
system.cpu.dcache.demand_mshr_misses::total      2028239                       # number of demand (read+write) MSHR misses
system.cpu.dcache.overall_mshr_misses::cpu.data      2044623                       # number of overall MSHR misses
system.cpu.dcache.overall_mshr_misses::total      2044623                       # number of overall MSHR misses
system.cpu.dcache.ReadReq_mshr_miss_latency::cpu.data 120805624500                       # number of ReadReq MSHR miss cycles
system.cpu.dcache.ReadReq_mshr_miss_latency::total 120805624500                       # number of ReadReq MSHR miss cycles
system.cpu.dcache.WriteReq_mshr_miss_latency::cpu.data  52669789500                       # number of WriteReq MSHR miss cycles
system.cpu.dcache.WriteReq_mshr_miss_latency::total  52669789500                       # number of WriteReq MSHR miss cycles
system.cpu.dcache.SoftPFReq_mshr_miss_latency::cpu.data   1413890475                       # number of SoftPFReq MSHR miss cycles
system.cpu.dcache.SoftPFReq_mshr_miss_latency::total   1413890475                       # number of SoftPFReq MSHR miss cycles
system.cpu.dcache.demand_mshr_miss_latency::cpu.data 173475414000                       # number of demand (read+write) MSHR miss cycles
system.cpu.dcache.demand_mshr_miss_latency::total 173475414000                       # number of demand (read+write) MSHR miss cycles
system.cpu.dcache.overall_mshr_miss_latency::cpu.data 174889304475                       # number of overall MSHR miss cycles
system.cpu.dcache.overall_mshr_miss_latency::total 174889304475                       # number of overall MSHR miss cycles
system.cpu.dcache.ReadReq_mshr_miss_rate::cpu.data     0.006370                       # mshr miss rate for ReadReq accesses
system.cpu.dcache.ReadReq_mshr_miss_rate::total     0.006370                       # mshr miss rate for ReadReq accesses
system.cpu.dcache.WriteReq_mshr_miss_rate::cpu.data     0.008409                       # mshr miss rate for WriteReq accesses
system.cpu.dcache.WriteReq_mshr_miss_rate::total     0.008409                       # mshr miss rate for WriteReq accesses
system.cpu.dcache.SoftPFReq_mshr_miss_rate::cpu.data            1                       # mshr miss rate for SoftPFReq accesses
system.cpu.dcache.SoftPFReq_mshr_miss_rate::total            1                       # mshr miss rate for SoftPFReq accesses
system.cpu.dcache.demand_mshr_miss_rate::cpu.data     0.006853                       # mshr miss rate for demand accesses
system.cpu.dcache.demand_mshr_miss_rate::total     0.006853                       # mshr miss rate for demand accesses
system.cpu.dcache.overall_mshr_miss_rate::cpu.data     0.006908                       # mshr miss rate for overall accesses
system.cpu.dcache.overall_mshr_miss_rate::total     0.006908                       # mshr miss rate for overall accesses
system.cpu.dcache.ReadReq_avg_mshr_miss_latency::cpu.data 83936.278447                       # average ReadReq mshr miss latency
system.cpu.dcache.ReadReq_avg_mshr_miss_latency::total 83936.278447                       # average ReadReq mshr miss latency
system.cpu.dcache.WriteReq_avg_mshr_miss_latency::cpu.data 89424.670408                       # average WriteReq mshr miss latency
system.cpu.dcache.WriteReq_avg_mshr_miss_latency::total 89424.670408                       # average WriteReq mshr miss latency
system.cpu.dcache.SoftPFReq_avg_mshr_miss_latency::cpu.data 86297.026062                       # average SoftPFReq mshr miss latency
system.cpu.dcache.SoftPFReq_avg_mshr_miss_latency::total 86297.026062                       # average SoftPFReq mshr miss latency
system.cpu.dcache.demand_avg_mshr_miss_latency::cpu.data 85530.065244                       # average overall mshr miss latency
system.cpu.dcache.demand_avg_mshr_miss_latency::total 85530.065244                       # average overall mshr miss latency
system.cpu.dcache.overall_avg_mshr_miss_latency::cpu.data 85536.211064                       # average overall mshr miss latency
system.cpu.dcache.overall_avg_mshr_miss_latency::total 85536.211064                       # average overall mshr miss latency
system.cpu.dcache.no_allocate_misses                0                       # Number of misses that were no-allocate
system.cpu.dtb_walker_cache.tags.replacements            0                       # number of replacements
system.cpu.dtb_walker_cache.tags.tagsinuse            0                       # Cycle average of tags in use
system.cpu.dtb_walker_cache.tags.total_refs            0                       # Total number of references to valid blocks.
system.cpu.dtb_walker_cache.tags.sampled_refs            0                       # Sample count of references to valid blocks.
system.cpu.dtb_walker_cache.tags.avg_refs          nan                       # Average number of references to valid blocks.
system.cpu.dtb_walker_cache.tags.warmup_cycle            0                       # Cycle when the warmup percentage was hit.
system.cpu.dtb_walker_cache.tags.tag_accesses            0                       # Number of tag accesses
system.cpu.dtb_walker_cache.tags.data_accesses            0                       # Number of data accesses
system.cpu.dtb_walker_cache.blocked_cycles::no_mshrs            0                       # number of cycles access was blocked
system.cpu.dtb_walker_cache.blocked_cycles::no_targets            0                       # number of cycles access was blocked
system.cpu.dtb_walker_cache.blocked::no_mshrs            0                       # number of cycles access was blocked
system.cpu.dtb_walker_cache.blocked::no_targets            0                       # number of cycles access was blocked
system.cpu.dtb_walker_cache.avg_blocked_cycles::no_mshrs          nan                       # average number of cycles each access was blocked
system.cpu.dtb_walker_cache.avg_blocked_cycles::no_targets          nan                       # average number of cycles each access was blocked
system.cpu.dtb_walker_cache.fast_writes             0                       # number of fast writes performed
system.cpu.dtb_walker_cache.cache_copies            0                       # number of cache copies performed
system.cpu.dtb_walker_cache.no_allocate_misses            0                       # Number of misses that were no-allocate
system.cpu.icache.tags.replacements                45                       # number of replacements
system.cpu.icache.tags.tagsinuse           661.591322                       # Cycle average of tags in use
system.cpu.icache.tags.total_refs           687396869                       # Total number of references to valid blocks.
system.cpu.icache.tags.sampled_refs               994                       # Sample count of references to valid blocks.
system.cpu.icache.tags.avg_refs          691546.145875                       # Average number of references to valid blocks.
system.cpu.icache.tags.warmup_cycle                 0                       # Cycle when the warmup percentage was hit.
system.cpu.icache.tags.occ_blocks::cpu.inst   661.591322                       # Average occupied blocks per requestor
system.cpu.icache.tags.occ_percent::cpu.inst     0.323043                       # Average percentage of cache occupancy
system.cpu.icache.tags.occ_percent::total     0.323043                       # Average percentage of cache occupancy
system.cpu.icache.tags.occ_task_id_blocks::1024          949                       # Occupied blocks per task id
system.cpu.icache.tags.age_task_id_blocks_1024::1            7                       # Occupied blocks per task id
system.cpu.icache.tags.age_task_id_blocks_1024::3           25                       # Occupied blocks per task id
system.cpu.icache.tags.age_task_id_blocks_1024::4          917                       # Occupied blocks per task id
system.cpu.icache.tags.occ_task_id_percent::1024     0.463379                       # Percentage of cache occupancy per task id
system.cpu.icache.tags.tag_accesses        1374796720                       # Number of tag accesses
system.cpu.icache.tags.data_accesses       1374796720                       # Number of data accesses
system.cpu.icache.ReadReq_hits::cpu.inst    687396869                       # number of ReadReq hits
system.cpu.icache.ReadReq_hits::total       687396869                       # number of ReadReq hits
system.cpu.icache.demand_hits::cpu.inst     687396869                       # number of demand (read+write) hits
system.cpu.icache.demand_hits::total        687396869                       # number of demand (read+write) hits
system.cpu.icache.overall_hits::cpu.inst    687396869                       # number of overall hits
system.cpu.icache.overall_hits::total       687396869                       # number of overall hits
system.cpu.icache.ReadReq_misses::cpu.inst          994                       # number of ReadReq misses
system.cpu.icache.ReadReq_misses::total           994                       # number of ReadReq misses
system.cpu.icache.demand_misses::cpu.inst          994                       # number of demand (read+write) misses
system.cpu.icache.demand_misses::total            994                       # number of demand (read+write) misses
system.cpu.icache.overall_misses::cpu.inst          994                       # number of overall misses
system.cpu.icache.overall_misses::total           994                       # number of overall misses
system.cpu.icache.ReadReq_miss_latency::cpu.inst     77328500                       # number of ReadReq miss cycles
system.cpu.icache.ReadReq_miss_latency::total     77328500                       # number of ReadReq miss cycles
system.cpu.icache.demand_miss_latency::cpu.inst     77328500                       # number of demand (read+write) miss cycles
system.cpu.icache.demand_miss_latency::total     77328500                       # number of demand (read+write) miss cycles
system.cpu.icache.overall_miss_latency::cpu.inst     77328500                       # number of overall miss cycles
system.cpu.icache.overall_miss_latency::total     77328500                       # number of overall miss cycles
system.cpu.icache.ReadReq_accesses::cpu.inst    687397863                       # number of ReadReq accesses(hits+misses)
system.cpu.icache.ReadReq_accesses::total    687397863                       # number of ReadReq accesses(hits+misses)
system.cpu.icache.demand_accesses::cpu.inst    687397863                       # number of demand (read+write) accesses
system.cpu.icache.demand_accesses::total    687397863                       # number of demand (read+write) accesses
system.cpu.icache.overall_accesses::cpu.inst    687397863                       # number of overall (read+write) accesses
system.cpu.icache.overall_accesses::total    687397863                       # number of overall (read+write) accesses
system.cpu.icache.ReadReq_miss_rate::cpu.inst     0.000001                       # miss rate for ReadReq accesses
system.cpu.icache.ReadReq_miss_rate::total     0.000001                       # miss rate for ReadReq accesses
system.cpu.icache.demand_miss_rate::cpu.inst     0.000001                       # miss rate for demand accesses
system.cpu.icache.demand_miss_rate::total     0.000001                       # miss rate for demand accesses
system.cpu.icache.overall_miss_rate::cpu.inst     0.000001                       # miss rate for overall accesses
system.cpu.icache.overall_miss_rate::total     0.000001                       # miss rate for overall accesses
system.cpu.icache.ReadReq_avg_miss_latency::cpu.inst 77795.271630                       # average ReadReq miss latency
system.cpu.icache.ReadReq_avg_miss_latency::total 77795.271630                       # average ReadReq miss latency
system.cpu.icache.demand_avg_miss_latency::cpu.inst 77795.271630                       # average overall miss latency
system.cpu.icache.demand_avg_miss_latency::total 77795.271630                       # average overall miss latency
system.cpu.icache.overall_avg_miss_latency::cpu.inst 77795.271630                       # average overall miss latency
system.cpu.icache.overall_avg_miss_latency::total 77795.271630                       # average overall miss latency
system.cpu.icache.blocked_cycles::no_mshrs            0                       # number of cycles access was blocked
system.cpu.icache.blocked_cycles::no_targets            0                       # number of cycles access was blocked
system.cpu.icache.blocked::no_mshrs                 0                       # number of cycles access was blocked
system.cpu.icache.blocked::no_targets               0                       # number of cycles access was blocked
system.cpu.icache.avg_blocked_cycles::no_mshrs          nan                       # average number of cycles each access was blocked
system.cpu.icache.avg_blocked_cycles::no_targets          nan                       # average number of cycles each access was blocked
system.cpu.icache.fast_writes                       0                       # number of fast writes performed
system.cpu.icache.cache_copies                      0                       # number of cache copies performed
system.cpu.icache.writebacks::writebacks           45                       # number of writebacks
system.cpu.icache.writebacks::total                45                       # number of writebacks
system.cpu.icache.ReadReq_mshr_misses::cpu.inst          994                       # number of ReadReq MSHR misses
system.cpu.icache.ReadReq_mshr_misses::total          994                       # number of ReadReq MSHR misses
system.cpu.icache.demand_mshr_misses::cpu.inst          994                       # number of demand (read+write) MSHR misses
system.cpu.icache.demand_mshr_misses::total          994                       # number of demand (read+write) MSHR misses
system.cpu.icache.overall_mshr_misses::cpu.inst          994                       # number of overall MSHR misses
system.cpu.icache.overall_mshr_misses::total          994                       # number of overall MSHR misses
system.cpu.icache.ReadReq_mshr_miss_latency::cpu.inst     76334500                       # number of ReadReq MSHR miss cycles
system.cpu.icache.ReadReq_mshr_miss_latency::total     76334500                       # number of ReadReq MSHR miss cycles
system.cpu.icache.demand_mshr_miss_latency::cpu.inst     76334500                       # number of demand (read+write) MSHR miss cycles
system.cpu.icache.demand_mshr_miss_latency::total     76334500                       # number of demand (read+write) MSHR miss cycles
system.cpu.icache.overall_mshr_miss_latency::cpu.inst     76334500                       # number of overall MSHR miss cycles
system.cpu.icache.overall_mshr_miss_latency::total     76334500                       # number of overall MSHR miss cycles
system.cpu.icache.ReadReq_mshr_miss_rate::cpu.inst     0.000001                       # mshr miss rate for ReadReq accesses
system.cpu.icache.ReadReq_mshr_miss_rate::total     0.000001                       # mshr miss rate for ReadReq accesses
system.cpu.icache.demand_mshr_miss_rate::cpu.inst     0.000001                       # mshr miss rate for demand accesses
system.cpu.icache.demand_mshr_miss_rate::total     0.000001                       # mshr miss rate for demand accesses
system.cpu.icache.overall_mshr_miss_rate::cpu.inst     0.000001                       # mshr miss rate for overall accesses
system.cpu.icache.overall_mshr_miss_rate::total     0.000001                       # mshr miss rate for overall accesses
system.cpu.icache.ReadReq_avg_mshr_miss_latency::cpu.inst 76795.271630                       # average ReadReq mshr miss latency
system.cpu.icache.ReadReq_avg_mshr_miss_latency::total 76795.271630                       # average ReadReq mshr miss latency
system.cpu.icache.demand_avg_mshr_miss_latency::cpu.inst 76795.271630                       # average overall mshr miss latency
system.cpu.icache.demand_avg_mshr_miss_latency::total 76795.271630                       # average overall mshr miss latency
system.cpu.icache.overall_avg_mshr_miss_latency::cpu.inst 76795.271630                       # average overall mshr miss latency
system.cpu.icache.overall_avg_mshr_miss_latency::total 76795.271630                       # average overall mshr miss latency
system.cpu.icache.no_allocate_misses                0                       # Number of misses that were no-allocate
system.cpu.itb_walker_cache.tags.replacements            0                       # number of replacements
system.cpu.itb_walker_cache.tags.tagsinuse            0                       # Cycle average of tags in use
system.cpu.itb_walker_cache.tags.total_refs            0                       # Total number of references to valid blocks.
system.cpu.itb_walker_cache.tags.sampled_refs            0                       # Sample count of references to valid blocks.
system.cpu.itb_walker_cache.tags.avg_refs          nan                       # Average number of references to valid blocks.
system.cpu.itb_walker_cache.tags.warmup_cycle            0                       # Cycle when the warmup percentage was hit.
system.cpu.itb_walker_cache.tags.tag_accesses            0                       # Number of tag accesses
system.cpu.itb_walker_cache.tags.data_accesses            0                       # Number of data accesses
system.cpu.itb_walker_cache.blocked_cycles::no_mshrs            0                       # number of cycles access was blocked
system.cpu.itb_walker_cache.blocked_cycles::no_targets            0                       # number of cycles access was blocked
system.cpu.itb_walker_cache.blocked::no_mshrs            0                       # number of cycles access was blocked
system.cpu.itb_walker_cache.blocked::no_targets            0                       # number of cycles access was blocked
system.cpu.itb_walker_cache.avg_blocked_cycles::no_mshrs          nan                       # average number of cycles each access was blocked
system.cpu.itb_walker_cache.avg_blocked_cycles::no_targets          nan                       # average number of cycles each access was blocked
system.cpu.itb_walker_cache.fast_writes             0                       # number of fast writes performed
system.cpu.itb_walker_cache.cache_copies            0                       # number of cache copies performed
system.cpu.itb_walker_cache.no_allocate_misses            0                       # Number of misses that were no-allocate
system.l2.tags.replacements                   2313665                       # number of replacements
system.l2.tags.tagsinuse                    15.045614                       # Cycle average of tags in use
system.l2.tags.total_refs                       14385                       # Total number of references to valid blocks.
system.l2.tags.sampled_refs                   2313681                       # Sample count of references to valid blocks.
system.l2.tags.avg_refs                      0.006217                       # Average number of references to valid blocks.
system.l2.tags.warmup_cycle                  10423000                       # Cycle when the warmup percentage was hit.
system.l2.tags.occ_blocks::writebacks        7.002976                       # Average occupied blocks per requestor
system.l2.tags.occ_blocks::cpu.inst          0.059273                       # Average occupied blocks per requestor
system.l2.tags.occ_blocks::cpu.data          7.983365                       # Average occupied blocks per requestor
system.l2.tags.occ_percent::writebacks       0.437686                       # Average percentage of cache occupancy
system.l2.tags.occ_percent::cpu.inst         0.003705                       # Average percentage of cache occupancy
system.l2.tags.occ_percent::cpu.data         0.498960                       # Average percentage of cache occupancy
system.l2.tags.occ_percent::total            0.940351                       # Average percentage of cache occupancy
system.l2.tags.occ_task_id_blocks::1024            16                       # Occupied blocks per task id
system.l2.tags.age_task_id_blocks_1024::1            9                       # Occupied blocks per task id
system.l2.tags.age_task_id_blocks_1024::2            7                       # Occupied blocks per task id
system.l2.tags.occ_task_id_percent::1024            1                       # Percentage of cache occupancy per task id
system.l2.tags.tag_accesses                   6990902                       # Number of tag accesses
system.l2.tags.data_accesses                  6990902                       # Number of data accesses
system.l2.WritebackDirty_hits::writebacks       871389                       # number of WritebackDirty hits
system.l2.WritebackDirty_hits::total           871389                       # number of WritebackDirty hits
system.l2.WritebackClean_hits::writebacks           45                       # number of WritebackClean hits
system.l2.WritebackClean_hits::total               45                       # number of WritebackClean hits
system.l2.ReadExReq_hits::cpu.data               2222                       # number of ReadExReq hits
system.l2.ReadExReq_hits::total                  2222                       # number of ReadExReq hits
system.l2.ReadSharedReq_hits::cpu.data          12163                       # number of ReadSharedReq hits
system.l2.ReadSharedReq_hits::total             12163                       # number of ReadSharedReq hits
system.l2.demand_hits::cpu.data                 14385                       # number of demand (read+write) hits
system.l2.demand_hits::total                    14385                       # number of demand (read+write) hits
system.l2.overall_hits::cpu.data                14385                       # number of overall hits
system.l2.overall_hits::total                   14385                       # number of overall hits
system.l2.ReadExReq_misses::cpu.data           586763                       # number of ReadExReq misses
system.l2.ReadExReq_misses::total              586763                       # number of ReadExReq misses
system.l2.ReadCleanReq_misses::cpu.inst           994                       # number of ReadCleanReq misses
system.l2.ReadCleanReq_misses::total              994                       # number of ReadCleanReq misses
system.l2.ReadSharedReq_misses::cpu.data      1443475                       # number of ReadSharedReq misses
system.l2.ReadSharedReq_misses::total         1443475                       # number of ReadSharedReq misses
system.l2.demand_misses::cpu.inst                 994                       # number of demand (read+write) misses
system.l2.demand_misses::cpu.data             2030238                       # number of demand (read+write) misses
system.l2.demand_misses::total                2031232                       # number of demand (read+write) misses
system.l2.overall_misses::cpu.inst                994                       # number of overall misses
system.l2.overall_misses::cpu.data            2030238                       # number of overall misses
system.l2.overall_misses::total               2031232                       # number of overall misses
system.l2.ReadExReq_miss_latency::cpu.data  51762980000                       # number of ReadExReq miss cycles
system.l2.ReadExReq_miss_latency::total   51762980000                       # number of ReadExReq miss cycles
system.l2.ReadCleanReq_miss_latency::cpu.inst     74843500                       # number of ReadCleanReq miss cycles
system.l2.ReadCleanReq_miss_latency::total     74843500                       # number of ReadCleanReq miss cycles
system.l2.ReadSharedReq_miss_latency::cpu.data 119908263000                       # number of ReadSharedReq miss cycles
system.l2.ReadSharedReq_miss_latency::total 119908263000                       # number of ReadSharedReq miss cycles
system.l2.demand_miss_latency::cpu.inst      74843500                       # number of demand (read+write) miss cycles
system.l2.demand_miss_latency::cpu.data  171671243000                       # number of demand (read+write) miss cycles
system.l2.demand_miss_latency::total     171746086500                       # number of demand (read+write) miss cycles
system.l2.overall_miss_latency::cpu.inst     74843500                       # number of overall miss cycles
system.l2.overall_miss_latency::cpu.data 171671243000                       # number of overall miss cycles
system.l2.overall_miss_latency::total    171746086500                       # number of overall miss cycles
system.l2.WritebackDirty_accesses::writebacks       871389                       # number of WritebackDirty accesses(hits+misses)
system.l2.WritebackDirty_accesses::total       871389                       # number of WritebackDirty accesses(hits+misses)
system.l2.WritebackClean_accesses::writebacks           45                       # number of WritebackClean accesses(hits+misses)
system.l2.WritebackClean_accesses::total           45                       # number of WritebackClean accesses(hits+misses)
system.l2.ReadExReq_accesses::cpu.data         588985                       # number of ReadExReq accesses(hits+misses)
system.l2.ReadExReq_accesses::total            588985                       # number of ReadExReq accesses(hits+misses)
system.l2.ReadCleanReq_accesses::cpu.inst          994                       # number of ReadCleanReq accesses(hits+misses)
system.l2.ReadCleanReq_accesses::total            994                       # number of ReadCleanReq accesses(hits+misses)
system.l2.ReadSharedReq_accesses::cpu.data      1455638                       # number of ReadSharedReq accesses(hits+misses)
system.l2.ReadSharedReq_accesses::total       1455638                       # number of ReadSharedReq accesses(hits+misses)
system.l2.demand_accesses::cpu.inst               994                       # number of demand (read+write) accesses
system.l2.demand_accesses::cpu.data           2044623                       # number of demand (read+write) accesses
system.l2.demand_accesses::total              2045617                       # number of demand (read+write) accesses
system.l2.overall_accesses::cpu.inst              994                       # number of overall (read+write) accesses
system.l2.overall_accesses::cpu.data          2044623                       # number of overall (read+write) accesses
system.l2.overall_accesses::total             2045617                       # number of overall (read+write) accesses
system.l2.ReadExReq_miss_rate::cpu.data      0.996227                       # miss rate for ReadExReq accesses
system.l2.ReadExReq_miss_rate::total         0.996227                       # miss rate for ReadExReq accesses
system.l2.ReadCleanReq_miss_rate::cpu.inst            1                       # miss rate for ReadCleanReq accesses
system.l2.ReadCleanReq_miss_rate::total             1                       # miss rate for ReadCleanReq accesses
system.l2.ReadSharedReq_miss_rate::cpu.data     0.991644                       # miss rate for ReadSharedReq accesses
system.l2.ReadSharedReq_miss_rate::total     0.991644                       # miss rate for ReadSharedReq accesses
system.l2.demand_miss_rate::cpu.inst                1                       # miss rate for demand accesses
system.l2.demand_miss_rate::cpu.data         0.992964                       # miss rate for demand accesses
system.l2.demand_miss_rate::total            0.992968                       # miss rate for demand accesses
system.l2.overall_miss_rate::cpu.inst               1                       # miss rate for overall accesses
system.l2.overall_miss_rate::cpu.data        0.992964                       # miss rate for overall accesses
system.l2.overall_miss_rate::total           0.992968                       # miss rate for overall accesses
system.l2.ReadExReq_avg_miss_latency::cpu.data 88217.866498                       # average ReadExReq miss latency
system.l2.ReadExReq_avg_miss_latency::total 88217.866498                       # average ReadExReq miss latency
system.l2.ReadCleanReq_avg_miss_latency::cpu.inst 75295.271630                       # average ReadCleanReq miss latency
system.l2.ReadCleanReq_avg_miss_latency::total 75295.271630                       # average ReadCleanReq miss latency
system.l2.ReadSharedReq_avg_miss_latency::cpu.data 83069.165036                       # average ReadSharedReq miss latency
system.l2.ReadSharedReq_avg_miss_latency::total 83069.165036                       # average ReadSharedReq miss latency
system.l2.demand_avg_miss_latency::cpu.inst 75295.271630                       # average overall miss latency
system.l2.demand_avg_miss_latency::cpu.data 84557.201175                       # average overall miss latency
system.l2.demand_avg_miss_latency::total 84552.668774                       # average overall miss latency
system.l2.overall_avg_miss_latency::cpu.inst 75295.271630                       # average overall miss latency
system.l2.overall_avg_miss_latency::cpu.data 84557.201175                       # average overall miss latency
system.l2.overall_avg_miss_latency::total 84552.668774                       # average overall miss latency
system.l2.blocked_cycles::no_mshrs                  0                       # number of cycles access was blocked
system.l2.blocked_cycles::no_targets                0                       # number of cycles access was blocked
system.l2.blocked::no_mshrs                         0                       # number of cycles access was blocked
system.l2.blocked::no_targets                       0                       # number of cycles access was blocked
system.l2.avg_blocked_cycles::no_mshrs            nan                       # average number of cycles each access was blocked
system.l2.avg_blocked_cycles::no_targets          nan                       # average number of cycles each access was blocked
system.l2.fast_writes                               0                       # number of fast writes performed
system.l2.cache_copies                              0                       # number of cache copies performed
system.l2.writebacks::writebacks               856995                       # number of writebacks
system.l2.writebacks::total                    856995                       # number of writebacks
system.l2.CleanEvict_mshr_misses::writebacks      1171185                       # number of CleanEvict MSHR misses
system.l2.CleanEvict_mshr_misses::total       1171185                       # number of CleanEvict MSHR misses
system.l2.ReadExReq_mshr_misses::cpu.data       586763                       # number of ReadExReq MSHR misses
system.l2.ReadExReq_mshr_misses::total         586763                       # number of ReadExReq MSHR misses
system.l2.ReadCleanReq_mshr_misses::cpu.inst          994                       # number of ReadCleanReq MSHR misses
system.l2.ReadCleanReq_mshr_misses::total          994                       # number of ReadCleanReq MSHR misses
system.l2.ReadSharedReq_mshr_misses::cpu.data      1443475                       # number of ReadSharedReq MSHR misses
system.l2.ReadSharedReq_mshr_misses::total      1443475                       # number of ReadSharedReq MSHR misses
system.l2.demand_mshr_misses::cpu.inst            994                       # number of demand (read+write) MSHR misses
system.l2.demand_mshr_misses::cpu.data        2030238                       # number of demand (read+write) MSHR misses
system.l2.demand_mshr_misses::total           2031232                       # number of demand (read+write) MSHR misses
system.l2.overall_mshr_misses::cpu.inst           994                       # number of overall MSHR misses
system.l2.overall_mshr_misses::cpu.data       2030238                       # number of overall MSHR misses
system.l2.overall_mshr_misses::total          2031232                       # number of overall MSHR misses
system.l2.ReadExReq_mshr_miss_latency::cpu.data  45895350000                       # number of ReadExReq MSHR miss cycles
system.l2.ReadExReq_mshr_miss_latency::total  45895350000                       # number of ReadExReq MSHR miss cycles
system.l2.ReadCleanReq_mshr_miss_latency::cpu.inst     64903500                       # number of ReadCleanReq MSHR miss cycles
system.l2.ReadCleanReq_mshr_miss_latency::total     64903500                       # number of ReadCleanReq MSHR miss cycles
system.l2.ReadSharedReq_mshr_miss_latency::cpu.data 105473513000                       # number of ReadSharedReq MSHR miss cycles
system.l2.ReadSharedReq_mshr_miss_latency::total 105473513000                       # number of ReadSharedReq MSHR miss cycles
system.l2.demand_mshr_miss_latency::cpu.inst     64903500                       # number of demand (read+write) MSHR miss cycles
system.l2.demand_mshr_miss_latency::cpu.data 151368863000                       # number of demand (read+write) MSHR miss cycles
system.l2.demand_mshr_miss_latency::total 151433766500                       # number of demand (read+write) MSHR miss cycles
system.l2.overall_mshr_miss_latency::cpu.inst     64903500                       # number of overall MSHR miss cycles
system.l2.overall_mshr_miss_latency::cpu.data 151368863000                       # number of overall MSHR miss cycles
system.l2.overall_mshr_miss_latency::total 151433766500                       # number of overall MSHR miss cycles
system.l2.CleanEvict_mshr_miss_rate::writebacks          inf                       # mshr miss rate for CleanEvict accesses
system.l2.CleanEvict_mshr_miss_rate::total          inf                       # mshr miss rate for CleanEvict accesses
system.l2.ReadExReq_mshr_miss_rate::cpu.data     0.996227                       # mshr miss rate for ReadExReq accesses
system.l2.ReadExReq_mshr_miss_rate::total     0.996227                       # mshr miss rate for ReadExReq accesses
system.l2.ReadCleanReq_mshr_miss_rate::cpu.inst            1                       # mshr miss rate for ReadCleanReq accesses
system.l2.ReadCleanReq_mshr_miss_rate::total            1                       # mshr miss rate for ReadCleanReq accesses
system.l2.ReadSharedReq_mshr_miss_rate::cpu.data     0.991644                       # mshr miss rate for ReadSharedReq accesses
system.l2.ReadSharedReq_mshr_miss_rate::total     0.991644                       # mshr miss rate for ReadSharedReq accesses
system.l2.demand_mshr_miss_rate::cpu.inst            1                       # mshr miss rate for demand accesses
system.l2.demand_mshr_miss_rate::cpu.data     0.992964                       # mshr miss rate for demand accesses
system.l2.demand_mshr_miss_rate::total       0.992968                       # mshr miss rate for demand accesses
system.l2.overall_mshr_miss_rate::cpu.inst            1                       # mshr miss rate for overall accesses
system.l2.overall_mshr_miss_rate::cpu.data     0.992964                       # mshr miss rate for overall accesses
system.l2.overall_mshr_miss_rate::total      0.992968                       # mshr miss rate for overall accesses
system.l2.ReadExReq_avg_mshr_miss_latency::cpu.data 78217.866498                       # average ReadExReq mshr miss latency
system.l2.ReadExReq_avg_mshr_miss_latency::total 78217.866498                       # average ReadExReq mshr miss latency
system.l2.ReadCleanReq_avg_mshr_miss_latency::cpu.inst 65295.271630                       # average ReadCleanReq mshr miss latency
system.l2.ReadCleanReq_avg_mshr_miss_latency::total 65295.271630                       # average ReadCleanReq mshr miss latency
system.l2.ReadSharedReq_avg_mshr_miss_latency::cpu.data 73069.165036                       # average ReadSharedReq mshr miss latency
system.l2.ReadSharedReq_avg_mshr_miss_latency::total 73069.165036                       # average ReadSharedReq mshr miss latency
system.l2.demand_avg_mshr_miss_latency::cpu.inst 65295.271630                       # average overall mshr miss latency
system.l2.demand_avg_mshr_miss_latency::cpu.data 74557.201175                       # average overall mshr miss latency
system.l2.demand_avg_mshr_miss_latency::total 74552.668774                       # average overall mshr miss latency
system.l2.overall_avg_mshr_miss_latency::cpu.inst 65295.271630                       # average overall mshr miss latency
system.l2.overall_avg_mshr_miss_latency::cpu.data 74557.201175                       # average overall mshr miss latency
system.l2.overall_avg_mshr_miss_latency::total 74552.668774                       # average overall mshr miss latency
system.l2.no_allocate_misses                        0                       # Number of misses that were no-allocate
system.membus.trans_dist::ReadResp            1444469                       # Transaction distribution
system.membus.trans_dist::WritebackDirty       856995                       # Transaction distribution
system.membus.trans_dist::CleanEvict          1171230                       # Transaction distribution
system.membus.trans_dist::ReadExReq            586763                       # Transaction distribution
system.membus.trans_dist::ReadExResp           586763                       # Transaction distribution
system.membus.trans_dist::ReadSharedReq       1444469                       # Transaction distribution
system.membus.pkt_count_system.l2.mem_side::system.mem_ctrls.port      6090689                       # Packet count per connected master and slave (bytes)
system.membus.pkt_count_system.l2.mem_side::total      6090689                       # Packet count per connected master and slave (bytes)
system.membus.pkt_count::total                6090689                       # Packet count per connected master and slave (bytes)
system.membus.pkt_size_system.l2.mem_side::system.mem_ctrls.port    184846528                       # Cumulative packet size per connected master and slave (bytes)
system.membus.pkt_size_system.l2.mem_side::total    184846528                       # Cumulative packet size per connected master and slave (bytes)
system.membus.pkt_size::total               184846528                       # Cumulative packet size per connected master and slave (bytes)
system.membus.snoops                                0                       # Total snoops (count)
system.membus.snoop_fanout::samples           4059457                       # Request fanout histogram
system.membus.snoop_fanout::mean                    0                       # Request fanout histogram
system.membus.snoop_fanout::stdev                   0                       # Request fanout histogram
system.membus.snoop_fanout::underflows              0      0.00%      0.00% # Request fanout histogram
system.membus.snoop_fanout::0                 4059457    100.00%    100.00% # Request fanout histogram
system.membus.snoop_fanout::1                       0      0.00%    100.00% # Request fanout histogram
system.membus.snoop_fanout::overflows               0      0.00%    100.00% # Request fanout histogram
system.membus.snoop_fanout::min_value               0                       # Request fanout histogram
system.membus.snoop_fanout::max_value               0                       # Request fanout histogram
system.membus.snoop_fanout::total             4059457                       # Request fanout histogram
system.membus.reqLayer2.occupancy          7493852000                       # Layer occupancy (ticks)
system.membus.reqLayer2.utilization               0.6                       # Layer utilization (%)
system.membus.respLayer1.occupancy        11056711000                       # Layer occupancy (ticks)
system.membus.respLayer1.utilization              1.0                       # Layer utilization (%)
system.tol2bus.snoop_filter.tot_requests      4088237                       # Total number of requests made to the snoop filter.
system.tol2bus.snoop_filter.hit_single_requests      2042620                       # Number of requests hitting in the snoop filter with a single holder of the requested data.
system.tol2bus.snoop_filter.hit_multi_requests            1                       # Number of requests hitting in the snoop filter with multiple (>1) holders of the requested data.
system.tol2bus.snoop_filter.tot_snoops        1456625                       # Total number of snoops made to the snoop filter.
system.tol2bus.snoop_filter.hit_single_snoops      1456624                       # Number of snoops hitting in the snoop filter with a single holder of the requested data.
system.tol2bus.snoop_filter.hit_multi_snoops            1                       # Number of snoops hitting in the snoop filter with multiple (>1) holders of the requested data.
system.tol2bus.trans_dist::ReadResp           1456632                       # Transaction distribution
system.tol2bus.trans_dist::WritebackDirty      1728384                       # Transaction distribution
system.tol2bus.trans_dist::WritebackClean           45                       # Transaction distribution
system.tol2bus.trans_dist::CleanEvict         2627855                       # Transaction distribution
system.tol2bus.trans_dist::ReadExReq           588985                       # Transaction distribution
system.tol2bus.trans_dist::ReadExResp          588985                       # Transaction distribution
system.tol2bus.trans_dist::ReadCleanReq           994                       # Transaction distribution
system.tol2bus.trans_dist::ReadSharedReq      1455638                       # Transaction distribution
system.tol2bus.pkt_count_system.cpu.icache.mem_side::system.l2.cpu_side         2033                       # Packet count per connected master and slave (bytes)
system.tol2bus.pkt_count_system.cpu.dcache.mem_side::system.l2.cpu_side      6131820                       # Packet count per connected master and slave (bytes)
system.tol2bus.pkt_count::total               6133853                       # Packet count per connected master and slave (bytes)
system.tol2bus.pkt_size_system.cpu.icache.mem_side::system.l2.cpu_side        66496                       # Cumulative packet size per connected master and slave (bytes)
system.tol2bus.pkt_size_system.cpu.dcache.mem_side::system.l2.cpu_side    186624768                       # Cumulative packet size per connected master and slave (bytes)
system.tol2bus.pkt_size::total              186691264                       # Cumulative packet size per connected master and slave (bytes)
system.tol2bus.snoops                         2313665                       # Total snoops (count)
system.tol2bus.snoop_fanout::samples          4359282                       # Request fanout histogram
system.tol2bus.snoop_fanout::mean            0.334144                       # Request fanout histogram
system.tol2bus.snoop_fanout::stdev           0.471691                       # Request fanout histogram
system.tol2bus.snoop_fanout::underflows             0      0.00%      0.00% # Request fanout histogram
system.tol2bus.snoop_fanout::0                2902656     66.59%     66.59% # Request fanout histogram
system.tol2bus.snoop_fanout::1                1456625     33.41%    100.00% # Request fanout histogram
system.tol2bus.snoop_fanout::2                      1      0.00%    100.00% # Request fanout histogram
system.tol2bus.snoop_fanout::3                      0      0.00%    100.00% # Request fanout histogram
system.tol2bus.snoop_fanout::4                      0      0.00%    100.00% # Request fanout histogram
system.tol2bus.snoop_fanout::overflows              0      0.00%    100.00% # Request fanout histogram
system.tol2bus.snoop_fanout::min_value              0                       # Request fanout histogram
system.tol2bus.snoop_fanout::max_value              2                       # Request fanout histogram
system.tol2bus.snoop_fanout::total            4359282                       # Request fanout histogram
system.tol2bus.reqLayer0.occupancy         2915552500                       # Layer occupancy (ticks)
system.tol2bus.reqLayer0.utilization              0.3                       # Layer utilization (%)
system.tol2bus.respLayer0.occupancy           1491000                       # Layer occupancy (ticks)
system.tol2bus.respLayer0.utilization             0.0                       # Layer utilization (%)
system.tol2bus.respLayer1.occupancy        3066934500                       # Layer occupancy (ticks)
system.tol2bus.respLayer1.utilization             0.3                       # Layer utilization (%)

---------- End Simulation Statistics   ----------
