
---------- Begin Simulation Statistics ----------
sim_seconds                                  1.608735                       # Number of seconds simulated
sim_ticks                                1608734548500                       # Number of ticks simulated
final_tick                               1608734548500                       # Number of ticks from beginning of simulation (restored from checkpoints and never reset)
sim_freq                                 1000000000000                       # Frequency of simulated ticks
host_inst_rate                                  34576                       # Simulator instruction rate (inst/s)
host_op_rate                                    60599                       # Simulator op (including micro ops) rate (op/s)
host_tick_rate                              111247007                       # Simulator tick rate (ticks/s)
host_mem_usage                                 826532                       # Number of bytes of host memory used
host_seconds                                 14460.92                       # Real time elapsed on the host
sim_insts                                   500000000                       # Number of instructions simulated
sim_ops                                     876313787                       # Number of ops (including micro ops) simulated
system.voltage_domain.voltage                       1                       # Voltage in Volts
system.clk_domain.clock                          1000                       # Clock period in ticks
system.mem_ctrls.bytes_read::cpu.inst           43200                       # Number of bytes read from this memory
system.mem_ctrls.bytes_read::cpu.data       406537216                       # Number of bytes read from this memory
system.mem_ctrls.bytes_read::total          406580416                       # Number of bytes read from this memory
system.mem_ctrls.bytes_inst_read::cpu.inst        43200                       # Number of instructions bytes read from this memory
system.mem_ctrls.bytes_inst_read::total         43200                       # Number of instructions bytes read from this memory
system.mem_ctrls.bytes_written::writebacks     70680576                       # Number of bytes written to this memory
system.mem_ctrls.bytes_written::total        70680576                       # Number of bytes written to this memory
system.mem_ctrls.num_reads::cpu.inst              675                       # Number of read requests responded to by this memory
system.mem_ctrls.num_reads::cpu.data          6352144                       # Number of read requests responded to by this memory
system.mem_ctrls.num_reads::total             6352819                       # Number of read requests responded to by this memory
system.mem_ctrls.num_writes::writebacks       1104384                       # Number of write requests responded to by this memory
system.mem_ctrls.num_writes::total            1104384                       # Number of write requests responded to by this memory
system.mem_ctrls.bw_read::cpu.inst              26853                       # Total read bandwidth from this memory (bytes/s)
system.mem_ctrls.bw_read::cpu.data          252706213                       # Total read bandwidth from this memory (bytes/s)
system.mem_ctrls.bw_read::total             252733067                       # Total read bandwidth from this memory (bytes/s)
system.mem_ctrls.bw_inst_read::cpu.inst         26853                       # Instruction read bandwidth from this memory (bytes/s)
system.mem_ctrls.bw_inst_read::total            26853                       # Instruction read bandwidth from this memory (bytes/s)
system.mem_ctrls.bw_write::writebacks        43935512                       # Write bandwidth from this memory (bytes/s)
system.mem_ctrls.bw_write::total             43935512                       # Write bandwidth from this memory (bytes/s)
system.mem_ctrls.bw_total::writebacks        43935512                       # Total bandwidth to/from this memory (bytes/s)
system.mem_ctrls.bw_total::cpu.inst             26853                       # Total bandwidth to/from this memory (bytes/s)
system.mem_ctrls.bw_total::cpu.data         252706213                       # Total bandwidth to/from this memory (bytes/s)
system.mem_ctrls.bw_total::total            296668579                       # Total bandwidth to/from this memory (bytes/s)
system.mem_ctrls.readReqs                     6352819                       # Number of read requests accepted
system.mem_ctrls.writeReqs                    1104384                       # Number of write requests accepted
system.mem_ctrls.readBursts                   6352819                       # Number of DRAM read bursts, including those serviced by the write queue
system.mem_ctrls.writeBursts                  1104384                       # Number of DRAM write bursts, including those merged in the write queue
system.mem_ctrls.bytesReadDRAM              406114752                       # Total number of bytes read from DRAM
system.mem_ctrls.bytesReadWrQ                  465664                       # Total number of bytes read from write queue
system.mem_ctrls.bytesWritten                70678464                       # Total number of bytes written to DRAM
system.mem_ctrls.bytesReadSys               406580416                       # Total read bytes from the system interface side
system.mem_ctrls.bytesWrittenSys             70680576                       # Total written bytes from the system interface side
system.mem_ctrls.servicedByWrQ                   7276                       # Number of DRAM read bursts serviced by the write queue
system.mem_ctrls.mergedWrBursts                     3                       # Number of DRAM write bursts merged with an existing one
system.mem_ctrls.neitherReadNorWriteReqs      5231361                       # Number of requests that are neither read nor write
system.mem_ctrls.perBankRdBursts::0            410406                       # Per bank write bursts
system.mem_ctrls.perBankRdBursts::1            392870                       # Per bank write bursts
system.mem_ctrls.perBankRdBursts::2            392678                       # Per bank write bursts
system.mem_ctrls.perBankRdBursts::3            402785                       # Per bank write bursts
system.mem_ctrls.perBankRdBursts::4            384480                       # Per bank write bursts
system.mem_ctrls.perBankRdBursts::5            388150                       # Per bank write bursts
system.mem_ctrls.perBankRdBursts::6            391726                       # Per bank write bursts
system.mem_ctrls.perBankRdBursts::7            384041                       # Per bank write bursts
system.mem_ctrls.perBankRdBursts::8            393719                       # Per bank write bursts
system.mem_ctrls.perBankRdBursts::9            390212                       # Per bank write bursts
system.mem_ctrls.perBankRdBursts::10           391755                       # Per bank write bursts
system.mem_ctrls.perBankRdBursts::11           394961                       # Per bank write bursts
system.mem_ctrls.perBankRdBursts::12           405861                       # Per bank write bursts
system.mem_ctrls.perBankRdBursts::13           409056                       # Per bank write bursts
system.mem_ctrls.perBankRdBursts::14           405385                       # Per bank write bursts
system.mem_ctrls.perBankRdBursts::15           407458                       # Per bank write bursts
system.mem_ctrls.perBankWrBursts::0             71506                       # Per bank write bursts
system.mem_ctrls.perBankWrBursts::1             70708                       # Per bank write bursts
system.mem_ctrls.perBankWrBursts::2             70652                       # Per bank write bursts
system.mem_ctrls.perBankWrBursts::3             72608                       # Per bank write bursts
system.mem_ctrls.perBankWrBursts::4             67427                       # Per bank write bursts
system.mem_ctrls.perBankWrBursts::5             65728                       # Per bank write bursts
system.mem_ctrls.perBankWrBursts::6             67409                       # Per bank write bursts
system.mem_ctrls.perBankWrBursts::7             65544                       # Per bank write bursts
system.mem_ctrls.perBankWrBursts::8             66883                       # Per bank write bursts
system.mem_ctrls.perBankWrBursts::9             65577                       # Per bank write bursts
system.mem_ctrls.perBankWrBursts::10            65841                       # Per bank write bursts
system.mem_ctrls.perBankWrBursts::11            69019                       # Per bank write bursts
system.mem_ctrls.perBankWrBursts::12            71527                       # Per bank write bursts
system.mem_ctrls.perBankWrBursts::13            71521                       # Per bank write bursts
system.mem_ctrls.perBankWrBursts::14            71133                       # Per bank write bursts
system.mem_ctrls.perBankWrBursts::15            71268                       # Per bank write bursts
system.mem_ctrls.numRdRetry                         0                       # Number of times read queue was full causing retry
system.mem_ctrls.numWrRetry                         0                       # Number of times write queue was full causing retry
system.mem_ctrls.totGap                  1608717446500                       # Total gap between requests
system.mem_ctrls.readPktSize::0                     0                       # Read request sizes (log2)
system.mem_ctrls.readPktSize::1                     0                       # Read request sizes (log2)
system.mem_ctrls.readPktSize::2                     0                       # Read request sizes (log2)
system.mem_ctrls.readPktSize::3                     0                       # Read request sizes (log2)
system.mem_ctrls.readPktSize::4                     0                       # Read request sizes (log2)
system.mem_ctrls.readPktSize::5                     0                       # Read request sizes (log2)
system.mem_ctrls.readPktSize::6               6352819                       # Read request sizes (log2)
system.mem_ctrls.writePktSize::0                    0                       # Write request sizes (log2)
system.mem_ctrls.writePktSize::1                    0                       # Write request sizes (log2)
system.mem_ctrls.writePktSize::2                    0                       # Write request sizes (log2)
system.mem_ctrls.writePktSize::3                    0                       # Write request sizes (log2)
system.mem_ctrls.writePktSize::4                    0                       # Write request sizes (log2)
system.mem_ctrls.writePktSize::5                    0                       # Write request sizes (log2)
system.mem_ctrls.writePktSize::6              1104384                       # Write request sizes (log2)
system.mem_ctrls.rdQLenPdf::0                 6345543                       # What read queue length does an incoming req see
system.mem_ctrls.rdQLenPdf::1                       0                       # What read queue length does an incoming req see
system.mem_ctrls.rdQLenPdf::2                       0                       # What read queue length does an incoming req see
system.mem_ctrls.rdQLenPdf::3                       0                       # What read queue length does an incoming req see
system.mem_ctrls.rdQLenPdf::4                       0                       # What read queue length does an incoming req see
system.mem_ctrls.rdQLenPdf::5                       0                       # What read queue length does an incoming req see
system.mem_ctrls.rdQLenPdf::6                       0                       # What read queue length does an incoming req see
system.mem_ctrls.rdQLenPdf::7                       0                       # What read queue length does an incoming req see
system.mem_ctrls.rdQLenPdf::8                       0                       # What read queue length does an incoming req see
system.mem_ctrls.rdQLenPdf::9                       0                       # What read queue length does an incoming req see
system.mem_ctrls.rdQLenPdf::10                      0                       # What read queue length does an incoming req see
system.mem_ctrls.rdQLenPdf::11                      0                       # What read queue length does an incoming req see
system.mem_ctrls.rdQLenPdf::12                      0                       # What read queue length does an incoming req see
system.mem_ctrls.rdQLenPdf::13                      0                       # What read queue length does an incoming req see
system.mem_ctrls.rdQLenPdf::14                      0                       # What read queue length does an incoming req see
system.mem_ctrls.rdQLenPdf::15                      0                       # What read queue length does an incoming req see
system.mem_ctrls.rdQLenPdf::16                      0                       # What read queue length does an incoming req see
system.mem_ctrls.rdQLenPdf::17                      0                       # What read queue length does an incoming req see
system.mem_ctrls.rdQLenPdf::18                      0                       # What read queue length does an incoming req see
system.mem_ctrls.rdQLenPdf::19                      0                       # What read queue length does an incoming req see
system.mem_ctrls.rdQLenPdf::20                      0                       # What read queue length does an incoming req see
system.mem_ctrls.rdQLenPdf::21                      0                       # What read queue length does an incoming req see
system.mem_ctrls.rdQLenPdf::22                      0                       # What read queue length does an incoming req see
system.mem_ctrls.rdQLenPdf::23                      0                       # What read queue length does an incoming req see
system.mem_ctrls.rdQLenPdf::24                      0                       # What read queue length does an incoming req see
system.mem_ctrls.rdQLenPdf::25                      0                       # What read queue length does an incoming req see
system.mem_ctrls.rdQLenPdf::26                      0                       # What read queue length does an incoming req see
system.mem_ctrls.rdQLenPdf::27                      0                       # What read queue length does an incoming req see
system.mem_ctrls.rdQLenPdf::28                      0                       # What read queue length does an incoming req see
system.mem_ctrls.rdQLenPdf::29                      0                       # What read queue length does an incoming req see
system.mem_ctrls.rdQLenPdf::30                      0                       # What read queue length does an incoming req see
system.mem_ctrls.rdQLenPdf::31                      0                       # What read queue length does an incoming req see
system.mem_ctrls.wrQLenPdf::0                       1                       # What write queue length does an incoming req see
system.mem_ctrls.wrQLenPdf::1                       1                       # What write queue length does an incoming req see
system.mem_ctrls.wrQLenPdf::2                       1                       # What write queue length does an incoming req see
system.mem_ctrls.wrQLenPdf::3                       1                       # What write queue length does an incoming req see
system.mem_ctrls.wrQLenPdf::4                       1                       # What write queue length does an incoming req see
system.mem_ctrls.wrQLenPdf::5                       1                       # What write queue length does an incoming req see
system.mem_ctrls.wrQLenPdf::6                       1                       # What write queue length does an incoming req see
system.mem_ctrls.wrQLenPdf::7                       1                       # What write queue length does an incoming req see
system.mem_ctrls.wrQLenPdf::8                       1                       # What write queue length does an incoming req see
system.mem_ctrls.wrQLenPdf::9                       1                       # What write queue length does an incoming req see
system.mem_ctrls.wrQLenPdf::10                      1                       # What write queue length does an incoming req see
system.mem_ctrls.wrQLenPdf::11                      1                       # What write queue length does an incoming req see
system.mem_ctrls.wrQLenPdf::12                      1                       # What write queue length does an incoming req see
system.mem_ctrls.wrQLenPdf::13                      1                       # What write queue length does an incoming req see
system.mem_ctrls.wrQLenPdf::14                      1                       # What write queue length does an incoming req see
system.mem_ctrls.wrQLenPdf::15                  30991                       # What write queue length does an incoming req see
system.mem_ctrls.wrQLenPdf::16                  32361                       # What write queue length does an incoming req see
system.mem_ctrls.wrQLenPdf::17                  64898                       # What write queue length does an incoming req see
system.mem_ctrls.wrQLenPdf::18                  65082                       # What write queue length does an incoming req see
system.mem_ctrls.wrQLenPdf::19                  65063                       # What write queue length does an incoming req see
system.mem_ctrls.wrQLenPdf::20                  65058                       # What write queue length does an incoming req see
system.mem_ctrls.wrQLenPdf::21                  65052                       # What write queue length does an incoming req see
system.mem_ctrls.wrQLenPdf::22                  65050                       # What write queue length does an incoming req see
system.mem_ctrls.wrQLenPdf::23                  65052                       # What write queue length does an incoming req see
system.mem_ctrls.wrQLenPdf::24                  65047                       # What write queue length does an incoming req see
system.mem_ctrls.wrQLenPdf::25                  65094                       # What write queue length does an incoming req see
system.mem_ctrls.wrQLenPdf::26                  65062                       # What write queue length does an incoming req see
system.mem_ctrls.wrQLenPdf::27                  65104                       # What write queue length does an incoming req see
system.mem_ctrls.wrQLenPdf::28                  65124                       # What write queue length does an incoming req see
system.mem_ctrls.wrQLenPdf::29                  65074                       # What write queue length does an incoming req see
system.mem_ctrls.wrQLenPdf::30                  65161                       # What write queue length does an incoming req see
system.mem_ctrls.wrQLenPdf::31                  65046                       # What write queue length does an incoming req see
system.mem_ctrls.wrQLenPdf::32                  65042                       # What write queue length does an incoming req see
system.mem_ctrls.wrQLenPdf::33                      5                       # What write queue length does an incoming req see
system.mem_ctrls.wrQLenPdf::34                      0                       # What write queue length does an incoming req see
system.mem_ctrls.wrQLenPdf::35                      0                       # What write queue length does an incoming req see
system.mem_ctrls.wrQLenPdf::36                      0                       # What write queue length does an incoming req see
system.mem_ctrls.wrQLenPdf::37                      0                       # What write queue length does an incoming req see
system.mem_ctrls.wrQLenPdf::38                      0                       # What write queue length does an incoming req see
system.mem_ctrls.wrQLenPdf::39                      0                       # What write queue length does an incoming req see
system.mem_ctrls.wrQLenPdf::40                      0                       # What write queue length does an incoming req see
system.mem_ctrls.wrQLenPdf::41                      0                       # What write queue length does an incoming req see
system.mem_ctrls.wrQLenPdf::42                      0                       # What write queue length does an incoming req see
system.mem_ctrls.wrQLenPdf::43                      0                       # What write queue length does an incoming req see
system.mem_ctrls.wrQLenPdf::44                      0                       # What write queue length does an incoming req see
system.mem_ctrls.wrQLenPdf::45                      0                       # What write queue length does an incoming req see
system.mem_ctrls.wrQLenPdf::46                      0                       # What write queue length does an incoming req see
system.mem_ctrls.wrQLenPdf::47                      0                       # What write queue length does an incoming req see
system.mem_ctrls.wrQLenPdf::48                      0                       # What write queue length does an incoming req see
system.mem_ctrls.wrQLenPdf::49                      0                       # What write queue length does an incoming req see
system.mem_ctrls.wrQLenPdf::50                      0                       # What write queue length does an incoming req see
system.mem_ctrls.wrQLenPdf::51                      0                       # What write queue length does an incoming req see
system.mem_ctrls.wrQLenPdf::52                      0                       # What write queue length does an incoming req see
system.mem_ctrls.wrQLenPdf::53                      0                       # What write queue length does an incoming req see
system.mem_ctrls.wrQLenPdf::54                      0                       # What write queue length does an incoming req see
system.mem_ctrls.wrQLenPdf::55                      0                       # What write queue length does an incoming req see
system.mem_ctrls.wrQLenPdf::56                      0                       # What write queue length does an incoming req see
system.mem_ctrls.wrQLenPdf::57                      0                       # What write queue length does an incoming req see
system.mem_ctrls.wrQLenPdf::58                      0                       # What write queue length does an incoming req see
system.mem_ctrls.wrQLenPdf::59                      0                       # What write queue length does an incoming req see
system.mem_ctrls.wrQLenPdf::60                      0                       # What write queue length does an incoming req see
system.mem_ctrls.wrQLenPdf::61                      0                       # What write queue length does an incoming req see
system.mem_ctrls.wrQLenPdf::62                      0                       # What write queue length does an incoming req see
system.mem_ctrls.wrQLenPdf::63                      0                       # What write queue length does an incoming req see
system.mem_ctrls.bytesPerActivate::samples      5554999                       # Bytes accessed per row activation
system.mem_ctrls.bytesPerActivate::mean     85.831377                       # Bytes accessed per row activation
system.mem_ctrls.bytesPerActivate::gmean    71.744578                       # Bytes accessed per row activation
system.mem_ctrls.bytesPerActivate::stdev   112.193461                       # Bytes accessed per row activation
system.mem_ctrls.bytesPerActivate::0-127      5013256     90.25%     90.25% # Bytes accessed per row activation
system.mem_ctrls.bytesPerActivate::128-255       389822      7.02%     97.27% # Bytes accessed per row activation
system.mem_ctrls.bytesPerActivate::256-383        38718      0.70%     97.96% # Bytes accessed per row activation
system.mem_ctrls.bytesPerActivate::384-511        17488      0.31%     98.28% # Bytes accessed per row activation
system.mem_ctrls.bytesPerActivate::512-639        12747      0.23%     98.51% # Bytes accessed per row activation
system.mem_ctrls.bytesPerActivate::640-767        11777      0.21%     98.72% # Bytes accessed per row activation
system.mem_ctrls.bytesPerActivate::768-895        13515      0.24%     98.96% # Bytes accessed per row activation
system.mem_ctrls.bytesPerActivate::896-1023         8611      0.16%     99.12% # Bytes accessed per row activation
system.mem_ctrls.bytesPerActivate::1024-1151        49065      0.88%    100.00% # Bytes accessed per row activation
system.mem_ctrls.bytesPerActivate::total      5554999                       # Bytes accessed per row activation
system.mem_ctrls.rdPerTurnAround::samples        65042                       # Reads before turning the bus around for writes
system.mem_ctrls.rdPerTurnAround::mean      97.559838                       # Reads before turning the bus around for writes
system.mem_ctrls.rdPerTurnAround::gmean     57.833430                       # Reads before turning the bus around for writes
system.mem_ctrls.rdPerTurnAround::stdev    118.329196                       # Reads before turning the bus around for writes
system.mem_ctrls.rdPerTurnAround::0-511         64548     99.24%     99.24% # Reads before turning the bus around for writes
system.mem_ctrls.rdPerTurnAround::512-1023          486      0.75%     99.99% # Reads before turning the bus around for writes
system.mem_ctrls.rdPerTurnAround::1024-1535            7      0.01%    100.00% # Reads before turning the bus around for writes
system.mem_ctrls.rdPerTurnAround::8704-9215            1      0.00%    100.00% # Reads before turning the bus around for writes
system.mem_ctrls.rdPerTurnAround::total         65042                       # Reads before turning the bus around for writes
system.mem_ctrls.wrPerTurnAround::samples        65042                       # Writes before turning the bus around for reads
system.mem_ctrls.wrPerTurnAround::mean      16.979044                       # Writes before turning the bus around for reads
system.mem_ctrls.wrPerTurnAround::gmean     16.949863                       # Writes before turning the bus around for reads
system.mem_ctrls.wrPerTurnAround::stdev      0.996345                       # Writes before turning the bus around for reads
system.mem_ctrls.wrPerTurnAround::16            32679     50.24%     50.24% # Writes before turning the bus around for reads
system.mem_ctrls.wrPerTurnAround::17             1347      2.07%     52.31% # Writes before turning the bus around for reads
system.mem_ctrls.wrPerTurnAround::18            30716     47.22%     99.54% # Writes before turning the bus around for reads
system.mem_ctrls.wrPerTurnAround::19              300      0.46%    100.00% # Writes before turning the bus around for reads
system.mem_ctrls.wrPerTurnAround::total         65042                       # Writes before turning the bus around for reads
system.mem_ctrls.totQLat                 144584185500                       # Total ticks spent queuing
system.mem_ctrls.totMemAccLat            263563116750                       # Total ticks spent from burst creation until serviced by the DRAM
system.mem_ctrls.totBusLat                31727715000                       # Total ticks spent in databus transfers
system.mem_ctrls.avgQLat                     22785.16                       # Average queueing delay per DRAM burst
system.mem_ctrls.avgBusLat                    5000.00                       # Average bus latency per DRAM burst
system.mem_ctrls.avgMemAccLat                41535.16                       # Average memory access latency per DRAM burst
system.mem_ctrls.avgRdBW                       252.44                       # Average DRAM read bandwidth in MiByte/s
system.mem_ctrls.avgWrBW                        43.93                       # Average achieved write bandwidth in MiByte/s
system.mem_ctrls.avgRdBWSys                    252.73                       # Average system read bandwidth in MiByte/s
system.mem_ctrls.avgWrBWSys                     43.94                       # Average system write bandwidth in MiByte/s
system.mem_ctrls.peakBW                      12800.00                       # Theoretical peak bandwidth in MiByte/s
system.mem_ctrls.busUtil                         2.32                       # Data bus utilization in percentage
system.mem_ctrls.busUtilRead                     1.97                       # Data bus utilization in percentage for reads
system.mem_ctrls.busUtilWrite                    0.34                       # Data bus utilization in percentage for writes
system.mem_ctrls.avgRdQLen                       1.00                       # Average read queue length when enqueuing
system.mem_ctrls.avgWrQLen                      24.77                       # Average write queue length when enqueuing
system.mem_ctrls.readRowHits                  1346106                       # Number of row buffer hits during reads
system.mem_ctrls.writeRowHits                  548789                       # Number of row buffer hits during writes
system.mem_ctrls.readRowHitRate                 21.21                       # Row buffer hit rate for reads
system.mem_ctrls.writeRowHitRate                49.69                       # Row buffer hit rate for writes
system.mem_ctrls.avgGap                     215726.65                       # Average gap between requests
system.mem_ctrls.pageHitRate                    25.44                       # Row buffer hit rate, read and write combined
system.mem_ctrls_0.actEnergy              20845974240                       # Energy for activate commands per rank (pJ)
system.mem_ctrls_0.preEnergy              11374291500                       # Energy for precharge commands per rank (pJ)
system.mem_ctrls_0.readEnergy             24547660800                       # Energy for read commands per rank (pJ)
system.mem_ctrls_0.writeEnergy             3574251360                       # Energy for write commands per rank (pJ)
system.mem_ctrls_0.refreshEnergy         105074598720                       # Energy for refresh commands per rank (pJ)
system.mem_ctrls_0.actBackEnergy         821037796875                       # Energy for active background per rank (pJ)
system.mem_ctrls_0.preBackEnergy         245031165000                       # Energy for precharge background per rank (pJ)
system.mem_ctrls_0.totalEnergy           1231485738495                       # Total energy per rank (pJ)
system.mem_ctrls_0.averagePower            765.500422                       # Core power per rank (mW)
system.mem_ctrls_0.memoryStateTime::IDLE 402645091250                       # Time in different power states
system.mem_ctrls_0.memoryStateTime::REF   53719120000                       # Time in different power states
system.mem_ctrls_0.memoryStateTime::PRE_PDN            0                       # Time in different power states
system.mem_ctrls_0.memoryStateTime::ACT  1152368733750                       # Time in different power states
system.mem_ctrls_0.memoryStateTime::ACT_PDN            0                       # Time in different power states
system.mem_ctrls_1.actEnergy              21149818200                       # Energy for activate commands per rank (pJ)
system.mem_ctrls_1.preEnergy              11540079375                       # Energy for precharge commands per rank (pJ)
system.mem_ctrls_1.readEnergy             24947574600                       # Energy for read commands per rank (pJ)
system.mem_ctrls_1.writeEnergy             3581943120                       # Energy for write commands per rank (pJ)
system.mem_ctrls_1.refreshEnergy         105074598720                       # Energy for refresh commands per rank (pJ)
system.mem_ctrls_1.actBackEnergy         822451364955                       # Energy for active background per rank (pJ)
system.mem_ctrls_1.preBackEnergy         243791193000                       # Energy for precharge background per rank (pJ)
system.mem_ctrls_1.totalEnergy           1232536571970                       # Total energy per rank (pJ)
system.mem_ctrls_1.averagePower            766.153628                       # Core power per rank (mW)
system.mem_ctrls_1.memoryStateTime::IDLE 400247293000                       # Time in different power states
system.mem_ctrls_1.memoryStateTime::REF   53719120000                       # Time in different power states
system.mem_ctrls_1.memoryStateTime::PRE_PDN            0                       # Time in different power states
system.mem_ctrls_1.memoryStateTime::ACT  1154766532000                       # Time in different power states
system.mem_ctrls_1.memoryStateTime::ACT_PDN            0                       # Time in different power states
system.cpu_voltage_domain.voltage                   1                       # Voltage in Volts
system.cpu_clk_domain.clock                       500                       # Clock period in ticks
system.cpu.apic_clk_domain.clock                 8000                       # Clock period in ticks
system.cpu.workload.num_syscalls                  168                       # Number of system calls
system.cpu.numCycles                       3217469097                       # number of cpu cycles simulated
system.cpu.numWorkItemsStarted                      0                       # number of work items this cpu started
system.cpu.numWorkItemsCompleted                    0                       # number of work items this cpu completed
system.cpu.committedInsts                   500000000                       # Number of instructions committed
system.cpu.committedOps                     876313787                       # Number of ops (including micro ops) committed
system.cpu.num_int_alu_accesses             872966684                       # Number of integer alu accesses
system.cpu.num_fp_alu_accesses                2882231                       # Number of float alu accesses
system.cpu.num_func_calls                    11025254                       # number of times a function call or return occured
system.cpu.num_conditional_control_insts     75981010                       # number of instructions that are conditional controls
system.cpu.num_int_insts                    872966684                       # number of integer instructions
system.cpu.num_fp_insts                       2882231                       # number of float instructions
system.cpu.num_int_register_reads          1835046968                       # number of times the integer registers were read
system.cpu.num_int_register_writes          703076421                       # number of times the integer registers were written
system.cpu.num_fp_register_reads              4386063                       # number of times the floating registers were read
system.cpu.num_fp_register_writes             2464405                       # number of times the floating registers were written
system.cpu.num_cc_register_reads            441654672                       # number of times the CC registers were read
system.cpu.num_cc_register_writes           253505512                       # number of times the CC registers were written
system.cpu.num_mem_refs                     293763601                       # number of memory refs
system.cpu.num_load_insts                   221285044                       # Number of load instructions
system.cpu.num_store_insts                   72478557                       # Number of store instructions
system.cpu.num_idle_cycles                          0                       # Number of idle cycles
system.cpu.num_busy_cycles                 3217469097                       # Number of busy cycles
system.cpu.not_idle_fraction                        1                       # Percentage of non-idle cycles
system.cpu.idle_fraction                            0                       # Percentage of idle cycles
system.cpu.Branches                          97901002                       # Number of branches fetched
system.cpu.op_class::No_OpClass                939429      0.11%      0.11% # Class of executed instruction
system.cpu.op_class::IntAlu                 578420256     66.01%     66.11% # Class of executed instruction
system.cpu.op_class::IntMult                   907073      0.10%     66.22% # Class of executed instruction
system.cpu.op_class::IntDiv                        42      0.00%     66.22% # Class of executed instruction
system.cpu.op_class::FloatAdd                 2283386      0.26%     66.48% # Class of executed instruction
system.cpu.op_class::FloatCmp                       0      0.00%     66.48% # Class of executed instruction
system.cpu.op_class::FloatCvt                       0      0.00%     66.48% # Class of executed instruction
system.cpu.op_class::FloatMult                      0      0.00%     66.48% # Class of executed instruction
system.cpu.op_class::FloatDiv                       0      0.00%     66.48% # Class of executed instruction
system.cpu.op_class::FloatSqrt                      0      0.00%     66.48% # Class of executed instruction
system.cpu.op_class::SimdAdd                        0      0.00%     66.48% # Class of executed instruction
system.cpu.op_class::SimdAddAcc                     0      0.00%     66.48% # Class of executed instruction
system.cpu.op_class::SimdAlu                        0      0.00%     66.48% # Class of executed instruction
system.cpu.op_class::SimdCmp                        0      0.00%     66.48% # Class of executed instruction
system.cpu.op_class::SimdCvt                        0      0.00%     66.48% # Class of executed instruction
system.cpu.op_class::SimdMisc                       0      0.00%     66.48% # Class of executed instruction
system.cpu.op_class::SimdMult                       0      0.00%     66.48% # Class of executed instruction
system.cpu.op_class::SimdMultAcc                    0      0.00%     66.48% # Class of executed instruction
system.cpu.op_class::SimdShift                      0      0.00%     66.48% # Class of executed instruction
system.cpu.op_class::SimdShiftAcc                   0      0.00%     66.48% # Class of executed instruction
system.cpu.op_class::SimdSqrt                       0      0.00%     66.48% # Class of executed instruction
system.cpu.op_class::SimdFloatAdd                   0      0.00%     66.48% # Class of executed instruction
system.cpu.op_class::SimdFloatAlu                   0      0.00%     66.48% # Class of executed instruction
system.cpu.op_class::SimdFloatCmp                   0      0.00%     66.48% # Class of executed instruction
system.cpu.op_class::SimdFloatCvt                   0      0.00%     66.48% # Class of executed instruction
system.cpu.op_class::SimdFloatDiv                   0      0.00%     66.48% # Class of executed instruction
system.cpu.op_class::SimdFloatMisc                  0      0.00%     66.48% # Class of executed instruction
system.cpu.op_class::SimdFloatMult                  0      0.00%     66.48% # Class of executed instruction
system.cpu.op_class::SimdFloatMultAcc               0      0.00%     66.48% # Class of executed instruction
system.cpu.op_class::SimdFloatSqrt                  0      0.00%     66.48% # Class of executed instruction
system.cpu.op_class::MemRead                221285044     25.25%     91.73% # Class of executed instruction
system.cpu.op_class::MemWrite                72478557      8.27%    100.00% # Class of executed instruction
system.cpu.op_class::IprAccess                      0      0.00%    100.00% # Class of executed instruction
system.cpu.op_class::InstPrefetch                   0      0.00%    100.00% # Class of executed instruction
system.cpu.op_class::total                  876313787                       # Class of executed instruction
system.cpu.dcache.tags.replacements          10223913                       # number of replacements
system.cpu.dcache.tags.tagsinuse          2047.300454                       # Cycle average of tags in use
system.cpu.dcache.tags.total_refs           283551768                       # Total number of references to valid blocks.
system.cpu.dcache.tags.sampled_refs          10225961                       # Sample count of references to valid blocks.
system.cpu.dcache.tags.avg_refs             27.728618                       # Average number of references to valid blocks.
system.cpu.dcache.tags.warmup_cycle        1262398500                       # Cycle when the warmup percentage was hit.
system.cpu.dcache.tags.occ_blocks::cpu.data  2047.300454                       # Average occupied blocks per requestor
system.cpu.dcache.tags.occ_percent::cpu.data     0.999658                       # Average percentage of cache occupancy
system.cpu.dcache.tags.occ_percent::total     0.999658                       # Average percentage of cache occupancy
system.cpu.dcache.tags.occ_task_id_blocks::1024         2048                       # Occupied blocks per task id
system.cpu.dcache.tags.age_task_id_blocks_1024::0            2                       # Occupied blocks per task id
system.cpu.dcache.tags.age_task_id_blocks_1024::1          606                       # Occupied blocks per task id
system.cpu.dcache.tags.age_task_id_blocks_1024::2         1253                       # Occupied blocks per task id
system.cpu.dcache.tags.age_task_id_blocks_1024::3          184                       # Occupied blocks per task id
system.cpu.dcache.tags.age_task_id_blocks_1024::4            3                       # Occupied blocks per task id
system.cpu.dcache.tags.occ_task_id_percent::1024            1                       # Percentage of cache occupancy per task id
system.cpu.dcache.tags.tag_accesses         597781419                       # Number of tag accesses
system.cpu.dcache.tags.data_accesses        597781419                       # Number of data accesses
system.cpu.dcache.ReadReq_hits::cpu.data    211414955                       # number of ReadReq hits
system.cpu.dcache.ReadReq_hits::total       211414955                       # number of ReadReq hits
system.cpu.dcache.WriteReq_hits::cpu.data     72136813                       # number of WriteReq hits
system.cpu.dcache.WriteReq_hits::total       72136813                       # number of WriteReq hits
system.cpu.dcache.demand_hits::cpu.data     283551768                       # number of demand (read+write) hits
system.cpu.dcache.demand_hits::total        283551768                       # number of demand (read+write) hits
system.cpu.dcache.overall_hits::cpu.data    283551768                       # number of overall hits
system.cpu.dcache.overall_hits::total       283551768                       # number of overall hits
system.cpu.dcache.ReadReq_misses::cpu.data      9884216                       # number of ReadReq misses
system.cpu.dcache.ReadReq_misses::total       9884216                       # number of ReadReq misses
system.cpu.dcache.WriteReq_misses::cpu.data       341745                       # number of WriteReq misses
system.cpu.dcache.WriteReq_misses::total       341745                       # number of WriteReq misses
system.cpu.dcache.demand_misses::cpu.data     10225961                       # number of demand (read+write) misses
system.cpu.dcache.demand_misses::total       10225961                       # number of demand (read+write) misses
system.cpu.dcache.overall_misses::cpu.data     10225961                       # number of overall misses
system.cpu.dcache.overall_misses::total      10225961                       # number of overall misses
system.cpu.dcache.ReadReq_miss_latency::cpu.data 628808131000                       # number of ReadReq miss cycles
system.cpu.dcache.ReadReq_miss_latency::total 628808131000                       # number of ReadReq miss cycles
system.cpu.dcache.WriteReq_miss_latency::cpu.data  19010407000                       # number of WriteReq miss cycles
system.cpu.dcache.WriteReq_miss_latency::total  19010407000                       # number of WriteReq miss cycles
system.cpu.dcache.demand_miss_latency::cpu.data 647818538000                       # number of demand (read+write) miss cycles
system.cpu.dcache.demand_miss_latency::total 647818538000                       # number of demand (read+write) miss cycles
system.cpu.dcache.overall_miss_latency::cpu.data 647818538000                       # number of overall miss cycles
system.cpu.dcache.overall_miss_latency::total 647818538000                       # number of overall miss cycles
system.cpu.dcache.ReadReq_accesses::cpu.data    221299171                       # number of ReadReq accesses(hits+misses)
system.cpu.dcache.ReadReq_accesses::total    221299171                       # number of ReadReq accesses(hits+misses)
system.cpu.dcache.WriteReq_accesses::cpu.data     72478558                       # number of WriteReq accesses(hits+misses)
system.cpu.dcache.WriteReq_accesses::total     72478558                       # number of WriteReq accesses(hits+misses)
system.cpu.dcache.demand_accesses::cpu.data    293777729                       # number of demand (read+write) accesses
system.cpu.dcache.demand_accesses::total    293777729                       # number of demand (read+write) accesses
system.cpu.dcache.overall_accesses::cpu.data    293777729                       # number of overall (read+write) accesses
system.cpu.dcache.overall_accesses::total    293777729                       # number of overall (read+write) accesses
system.cpu.dcache.ReadReq_miss_rate::cpu.data     0.044664                       # miss rate for ReadReq accesses
system.cpu.dcache.ReadReq_miss_rate::total     0.044664                       # miss rate for ReadReq accesses
system.cpu.dcache.WriteReq_miss_rate::cpu.data     0.004715                       # miss rate for WriteReq accesses
system.cpu.dcache.WriteReq_miss_rate::total     0.004715                       # miss rate for WriteReq accesses
system.cpu.dcache.demand_miss_rate::cpu.data     0.034808                       # miss rate for demand accesses
system.cpu.dcache.demand_miss_rate::total     0.034808                       # miss rate for demand accesses
system.cpu.dcache.overall_miss_rate::cpu.data     0.034808                       # miss rate for overall accesses
system.cpu.dcache.overall_miss_rate::total     0.034808                       # miss rate for overall accesses
system.cpu.dcache.ReadReq_avg_miss_latency::cpu.data 63617.400814                       # average ReadReq miss latency
system.cpu.dcache.ReadReq_avg_miss_latency::total 63617.400814                       # average ReadReq miss latency
system.cpu.dcache.WriteReq_avg_miss_latency::cpu.data 55627.461997                       # average WriteReq miss latency
system.cpu.dcache.WriteReq_avg_miss_latency::total 55627.461997                       # average WriteReq miss latency
system.cpu.dcache.demand_avg_miss_latency::cpu.data 63350.382228                       # average overall miss latency
system.cpu.dcache.demand_avg_miss_latency::total 63350.382228                       # average overall miss latency
system.cpu.dcache.overall_avg_miss_latency::cpu.data 63350.382228                       # average overall miss latency
system.cpu.dcache.overall_avg_miss_latency::total 63350.382228                       # average overall miss latency
system.cpu.dcache.blocked_cycles::no_mshrs            0                       # number of cycles access was blocked
system.cpu.dcache.blocked_cycles::no_targets            0                       # number of cycles access was blocked
system.cpu.dcache.blocked::no_mshrs                 0                       # number of cycles access was blocked
system.cpu.dcache.blocked::no_targets               0                       # number of cycles access was blocked
system.cpu.dcache.avg_blocked_cycles::no_mshrs          nan                       # average number of cycles each access was blocked
system.cpu.dcache.avg_blocked_cycles::no_targets          nan                       # average number of cycles each access was blocked
system.cpu.dcache.fast_writes                       0                       # number of fast writes performed
system.cpu.dcache.cache_copies                      0                       # number of cache copies performed
system.cpu.dcache.writebacks::writebacks      2650285                       # number of writebacks
system.cpu.dcache.writebacks::total           2650285                       # number of writebacks
system.cpu.dcache.ReadReq_mshr_misses::cpu.data      9884216                       # number of ReadReq MSHR misses
system.cpu.dcache.ReadReq_mshr_misses::total      9884216                       # number of ReadReq MSHR misses
system.cpu.dcache.WriteReq_mshr_misses::cpu.data       341745                       # number of WriteReq MSHR misses
system.cpu.dcache.WriteReq_mshr_misses::total       341745                       # number of WriteReq MSHR misses
system.cpu.dcache.demand_mshr_misses::cpu.data     10225961                       # number of demand (read+write) MSHR misses
system.cpu.dcache.demand_mshr_misses::total     10225961                       # number of demand (read+write) MSHR misses
system.cpu.dcache.overall_mshr_misses::cpu.data     10225961                       # number of overall MSHR misses
system.cpu.dcache.overall_mshr_misses::total     10225961                       # number of overall MSHR misses
system.cpu.dcache.ReadReq_mshr_miss_latency::cpu.data 618923915000                       # number of ReadReq MSHR miss cycles
system.cpu.dcache.ReadReq_mshr_miss_latency::total 618923915000                       # number of ReadReq MSHR miss cycles
system.cpu.dcache.WriteReq_mshr_miss_latency::cpu.data  18668662000                       # number of WriteReq MSHR miss cycles
system.cpu.dcache.WriteReq_mshr_miss_latency::total  18668662000                       # number of WriteReq MSHR miss cycles
system.cpu.dcache.demand_mshr_miss_latency::cpu.data 637592577000                       # number of demand (read+write) MSHR miss cycles
system.cpu.dcache.demand_mshr_miss_latency::total 637592577000                       # number of demand (read+write) MSHR miss cycles
system.cpu.dcache.overall_mshr_miss_latency::cpu.data 637592577000                       # number of overall MSHR miss cycles
system.cpu.dcache.overall_mshr_miss_latency::total 637592577000                       # number of overall MSHR miss cycles
system.cpu.dcache.ReadReq_mshr_miss_rate::cpu.data     0.044664                       # mshr miss rate for ReadReq accesses
system.cpu.dcache.ReadReq_mshr_miss_rate::total     0.044664                       # mshr miss rate for ReadReq accesses
system.cpu.dcache.WriteReq_mshr_miss_rate::cpu.data     0.004715                       # mshr miss rate for WriteReq accesses
system.cpu.dcache.WriteReq_mshr_miss_rate::total     0.004715                       # mshr miss rate for WriteReq accesses
system.cpu.dcache.demand_mshr_miss_rate::cpu.data     0.034808                       # mshr miss rate for demand accesses
system.cpu.dcache.demand_mshr_miss_rate::total     0.034808                       # mshr miss rate for demand accesses
system.cpu.dcache.overall_mshr_miss_rate::cpu.data     0.034808                       # mshr miss rate for overall accesses
system.cpu.dcache.overall_mshr_miss_rate::total     0.034808                       # mshr miss rate for overall accesses
system.cpu.dcache.ReadReq_avg_mshr_miss_latency::cpu.data 62617.400814                       # average ReadReq mshr miss latency
system.cpu.dcache.ReadReq_avg_mshr_miss_latency::total 62617.400814                       # average ReadReq mshr miss latency
system.cpu.dcache.WriteReq_avg_mshr_miss_latency::cpu.data 54627.461997                       # average WriteReq mshr miss latency
system.cpu.dcache.WriteReq_avg_mshr_miss_latency::total 54627.461997                       # average WriteReq mshr miss latency
system.cpu.dcache.demand_avg_mshr_miss_latency::cpu.data 62350.382228                       # average overall mshr miss latency
system.cpu.dcache.demand_avg_mshr_miss_latency::total 62350.382228                       # average overall mshr miss latency
system.cpu.dcache.overall_avg_mshr_miss_latency::cpu.data 62350.382228                       # average overall mshr miss latency
system.cpu.dcache.overall_avg_mshr_miss_latency::total 62350.382228                       # average overall mshr miss latency
system.cpu.dcache.no_allocate_misses                0                       # Number of misses that were no-allocate
system.cpu.dtb_walker_cache.tags.replacements            0                       # number of replacements
system.cpu.dtb_walker_cache.tags.tagsinuse            0                       # Cycle average of tags in use
system.cpu.dtb_walker_cache.tags.total_refs            0                       # Total number of references to valid blocks.
system.cpu.dtb_walker_cache.tags.sampled_refs            0                       # Sample count of references to valid blocks.
system.cpu.dtb_walker_cache.tags.avg_refs          nan                       # Average number of references to valid blocks.
system.cpu.dtb_walker_cache.tags.warmup_cycle            0                       # Cycle when the warmup percentage was hit.
system.cpu.dtb_walker_cache.tags.tag_accesses            0                       # Number of tag accesses
system.cpu.dtb_walker_cache.tags.data_accesses            0                       # Number of data accesses
system.cpu.dtb_walker_cache.blocked_cycles::no_mshrs            0                       # number of cycles access was blocked
system.cpu.dtb_walker_cache.blocked_cycles::no_targets            0                       # number of cycles access was blocked
system.cpu.dtb_walker_cache.blocked::no_mshrs            0                       # number of cycles access was blocked
system.cpu.dtb_walker_cache.blocked::no_targets            0                       # number of cycles access was blocked
system.cpu.dtb_walker_cache.avg_blocked_cycles::no_mshrs          nan                       # average number of cycles each access was blocked
system.cpu.dtb_walker_cache.avg_blocked_cycles::no_targets          nan                       # average number of cycles each access was blocked
system.cpu.dtb_walker_cache.fast_writes             0                       # number of fast writes performed
system.cpu.dtb_walker_cache.cache_copies            0                       # number of cache copies performed
system.cpu.dtb_walker_cache.no_allocate_misses            0                       # Number of misses that were no-allocate
system.cpu.icache.tags.replacements                21                       # number of replacements
system.cpu.icache.tags.tagsinuse           617.890238                       # Cycle average of tags in use
system.cpu.icache.tags.total_refs           677317270                       # Total number of references to valid blocks.
system.cpu.icache.tags.sampled_refs               676                       # Sample count of references to valid blocks.
system.cpu.icache.tags.avg_refs          1001948.624260                       # Average number of references to valid blocks.
system.cpu.icache.tags.warmup_cycle                 0                       # Cycle when the warmup percentage was hit.
system.cpu.icache.tags.occ_blocks::cpu.inst   617.890238                       # Average occupied blocks per requestor
system.cpu.icache.tags.occ_percent::cpu.inst     0.301704                       # Average percentage of cache occupancy
system.cpu.icache.tags.occ_percent::total     0.301704                       # Average percentage of cache occupancy
system.cpu.icache.tags.occ_task_id_blocks::1024          655                       # Occupied blocks per task id
system.cpu.icache.tags.age_task_id_blocks_1024::4          655                       # Occupied blocks per task id
system.cpu.icache.tags.occ_task_id_percent::1024     0.319824                       # Percentage of cache occupancy per task id
system.cpu.icache.tags.tag_accesses        1354636568                       # Number of tag accesses
system.cpu.icache.tags.data_accesses       1354636568                       # Number of data accesses
system.cpu.icache.ReadReq_hits::cpu.inst    677317270                       # number of ReadReq hits
system.cpu.icache.ReadReq_hits::total       677317270                       # number of ReadReq hits
system.cpu.icache.demand_hits::cpu.inst     677317270                       # number of demand (read+write) hits
system.cpu.icache.demand_hits::total        677317270                       # number of demand (read+write) hits
system.cpu.icache.overall_hits::cpu.inst    677317270                       # number of overall hits
system.cpu.icache.overall_hits::total       677317270                       # number of overall hits
system.cpu.icache.ReadReq_misses::cpu.inst          676                       # number of ReadReq misses
system.cpu.icache.ReadReq_misses::total           676                       # number of ReadReq misses
system.cpu.icache.demand_misses::cpu.inst          676                       # number of demand (read+write) misses
system.cpu.icache.demand_misses::total            676                       # number of demand (read+write) misses
system.cpu.icache.overall_misses::cpu.inst          676                       # number of overall misses
system.cpu.icache.overall_misses::total           676                       # number of overall misses
system.cpu.icache.ReadReq_miss_latency::cpu.inst     54039000                       # number of ReadReq miss cycles
system.cpu.icache.ReadReq_miss_latency::total     54039000                       # number of ReadReq miss cycles
system.cpu.icache.demand_miss_latency::cpu.inst     54039000                       # number of demand (read+write) miss cycles
system.cpu.icache.demand_miss_latency::total     54039000                       # number of demand (read+write) miss cycles
system.cpu.icache.overall_miss_latency::cpu.inst     54039000                       # number of overall miss cycles
system.cpu.icache.overall_miss_latency::total     54039000                       # number of overall miss cycles
system.cpu.icache.ReadReq_accesses::cpu.inst    677317946                       # number of ReadReq accesses(hits+misses)
system.cpu.icache.ReadReq_accesses::total    677317946                       # number of ReadReq accesses(hits+misses)
system.cpu.icache.demand_accesses::cpu.inst    677317946                       # number of demand (read+write) accesses
system.cpu.icache.demand_accesses::total    677317946                       # number of demand (read+write) accesses
system.cpu.icache.overall_accesses::cpu.inst    677317946                       # number of overall (read+write) accesses
system.cpu.icache.overall_accesses::total    677317946                       # number of overall (read+write) accesses
system.cpu.icache.ReadReq_miss_rate::cpu.inst     0.000001                       # miss rate for ReadReq accesses
system.cpu.icache.ReadReq_miss_rate::total     0.000001                       # miss rate for ReadReq accesses
system.cpu.icache.demand_miss_rate::cpu.inst     0.000001                       # miss rate for demand accesses
system.cpu.icache.demand_miss_rate::total     0.000001                       # miss rate for demand accesses
system.cpu.icache.overall_miss_rate::cpu.inst     0.000001                       # miss rate for overall accesses
system.cpu.icache.overall_miss_rate::total     0.000001                       # miss rate for overall accesses
system.cpu.icache.ReadReq_avg_miss_latency::cpu.inst 79939.349112                       # average ReadReq miss latency
system.cpu.icache.ReadReq_avg_miss_latency::total 79939.349112                       # average ReadReq miss latency
system.cpu.icache.demand_avg_miss_latency::cpu.inst 79939.349112                       # average overall miss latency
system.cpu.icache.demand_avg_miss_latency::total 79939.349112                       # average overall miss latency
system.cpu.icache.overall_avg_miss_latency::cpu.inst 79939.349112                       # average overall miss latency
system.cpu.icache.overall_avg_miss_latency::total 79939.349112                       # average overall miss latency
system.cpu.icache.blocked_cycles::no_mshrs            0                       # number of cycles access was blocked
system.cpu.icache.blocked_cycles::no_targets            0                       # number of cycles access was blocked
system.cpu.icache.blocked::no_mshrs                 0                       # number of cycles access was blocked
system.cpu.icache.blocked::no_targets               0                       # number of cycles access was blocked
system.cpu.icache.avg_blocked_cycles::no_mshrs          nan                       # average number of cycles each access was blocked
system.cpu.icache.avg_blocked_cycles::no_targets          nan                       # average number of cycles each access was blocked
system.cpu.icache.fast_writes                       0                       # number of fast writes performed
system.cpu.icache.cache_copies                      0                       # number of cache copies performed
system.cpu.icache.writebacks::writebacks           21                       # number of writebacks
system.cpu.icache.writebacks::total                21                       # number of writebacks
system.cpu.icache.ReadReq_mshr_misses::cpu.inst          676                       # number of ReadReq MSHR misses
system.cpu.icache.ReadReq_mshr_misses::total          676                       # number of ReadReq MSHR misses
system.cpu.icache.demand_mshr_misses::cpu.inst          676                       # number of demand (read+write) MSHR misses
system.cpu.icache.demand_mshr_misses::total          676                       # number of demand (read+write) MSHR misses
system.cpu.icache.overall_mshr_misses::cpu.inst          676                       # number of overall MSHR misses
system.cpu.icache.overall_mshr_misses::total          676                       # number of overall MSHR misses
system.cpu.icache.ReadReq_mshr_miss_latency::cpu.inst     53363000                       # number of ReadReq MSHR miss cycles
system.cpu.icache.ReadReq_mshr_miss_latency::total     53363000                       # number of ReadReq MSHR miss cycles
system.cpu.icache.demand_mshr_miss_latency::cpu.inst     53363000                       # number of demand (read+write) MSHR miss cycles
system.cpu.icache.demand_mshr_miss_latency::total     53363000                       # number of demand (read+write) MSHR miss cycles
system.cpu.icache.overall_mshr_miss_latency::cpu.inst     53363000                       # number of overall MSHR miss cycles
system.cpu.icache.overall_mshr_miss_latency::total     53363000                       # number of overall MSHR miss cycles
system.cpu.icache.ReadReq_mshr_miss_rate::cpu.inst     0.000001                       # mshr miss rate for ReadReq accesses
system.cpu.icache.ReadReq_mshr_miss_rate::total     0.000001                       # mshr miss rate for ReadReq accesses
system.cpu.icache.demand_mshr_miss_rate::cpu.inst     0.000001                       # mshr miss rate for demand accesses
system.cpu.icache.demand_mshr_miss_rate::total     0.000001                       # mshr miss rate for demand accesses
system.cpu.icache.overall_mshr_miss_rate::cpu.inst     0.000001                       # mshr miss rate for overall accesses
system.cpu.icache.overall_mshr_miss_rate::total     0.000001                       # mshr miss rate for overall accesses
system.cpu.icache.ReadReq_avg_mshr_miss_latency::cpu.inst 78939.349112                       # average ReadReq mshr miss latency
system.cpu.icache.ReadReq_avg_mshr_miss_latency::total 78939.349112                       # average ReadReq mshr miss latency
system.cpu.icache.demand_avg_mshr_miss_latency::cpu.inst 78939.349112                       # average overall mshr miss latency
system.cpu.icache.demand_avg_mshr_miss_latency::total 78939.349112                       # average overall mshr miss latency
system.cpu.icache.overall_avg_mshr_miss_latency::cpu.inst 78939.349112                       # average overall mshr miss latency
system.cpu.icache.overall_avg_mshr_miss_latency::total 78939.349112                       # average overall mshr miss latency
system.cpu.icache.no_allocate_misses                0                       # Number of misses that were no-allocate
system.cpu.itb_walker_cache.tags.replacements            0                       # number of replacements
system.cpu.itb_walker_cache.tags.tagsinuse            0                       # Cycle average of tags in use
system.cpu.itb_walker_cache.tags.total_refs            0                       # Total number of references to valid blocks.
system.cpu.itb_walker_cache.tags.sampled_refs            0                       # Sample count of references to valid blocks.
system.cpu.itb_walker_cache.tags.avg_refs          nan                       # Average number of references to valid blocks.
system.cpu.itb_walker_cache.tags.warmup_cycle            0                       # Cycle when the warmup percentage was hit.
system.cpu.itb_walker_cache.tags.tag_accesses            0                       # Number of tag accesses
system.cpu.itb_walker_cache.tags.data_accesses            0                       # Number of data accesses
system.cpu.itb_walker_cache.blocked_cycles::no_mshrs            0                       # number of cycles access was blocked
system.cpu.itb_walker_cache.blocked_cycles::no_targets            0                       # number of cycles access was blocked
system.cpu.itb_walker_cache.blocked::no_mshrs            0                       # number of cycles access was blocked
system.cpu.itb_walker_cache.blocked::no_targets            0                       # number of cycles access was blocked
system.cpu.itb_walker_cache.avg_blocked_cycles::no_mshrs          nan                       # average number of cycles each access was blocked
system.cpu.itb_walker_cache.avg_blocked_cycles::no_targets          nan                       # average number of cycles each access was blocked
system.cpu.itb_walker_cache.fast_writes             0                       # number of fast writes performed
system.cpu.itb_walker_cache.cache_copies            0                       # number of cache copies performed
system.cpu.itb_walker_cache.no_allocate_misses            0                       # Number of misses that were no-allocate
system.l2.tags.replacements                   6372361                       # number of replacements
system.l2.tags.tagsinuse                 15991.559837                       # Cycle average of tags in use
system.l2.tags.total_refs                    13624057                       # Total number of references to valid blocks.
system.l2.tags.sampled_refs                   6388693                       # Sample count of references to valid blocks.
system.l2.tags.avg_refs                      2.132526                       # Average number of references to valid blocks.
system.l2.tags.warmup_cycle              329999649500                       # Cycle when the warmup percentage was hit.
system.l2.tags.occ_blocks::writebacks     2825.191723                       # Average occupied blocks per requestor
system.l2.tags.occ_blocks::cpu.inst          2.134869                       # Average occupied blocks per requestor
system.l2.tags.occ_blocks::cpu.data      13164.233245                       # Average occupied blocks per requestor
system.l2.tags.occ_percent::writebacks       0.172436                       # Average percentage of cache occupancy
system.l2.tags.occ_percent::cpu.inst         0.000130                       # Average percentage of cache occupancy
system.l2.tags.occ_percent::cpu.data         0.803481                       # Average percentage of cache occupancy
system.l2.tags.occ_percent::total            0.976047                       # Average percentage of cache occupancy
system.l2.tags.occ_task_id_blocks::1024         16332                       # Occupied blocks per task id
system.l2.tags.age_task_id_blocks_1024::1          377                       # Occupied blocks per task id
system.l2.tags.age_task_id_blocks_1024::2         3489                       # Occupied blocks per task id
system.l2.tags.age_task_id_blocks_1024::3         9297                       # Occupied blocks per task id
system.l2.tags.age_task_id_blocks_1024::4         3169                       # Occupied blocks per task id
system.l2.tags.occ_task_id_percent::1024     0.996826                       # Percentage of cache occupancy per task id
system.l2.tags.tag_accesses                  47631578                       # Number of tag accesses
system.l2.tags.data_accesses                 47631578                       # Number of data accesses
system.l2.WritebackDirty_hits::writebacks      2650285                       # number of WritebackDirty hits
system.l2.WritebackDirty_hits::total          2650285                       # number of WritebackDirty hits
system.l2.WritebackClean_hits::writebacks           21                       # number of WritebackClean hits
system.l2.WritebackClean_hits::total               21                       # number of WritebackClean hits
system.l2.ReadExReq_hits::cpu.data             133384                       # number of ReadExReq hits
system.l2.ReadExReq_hits::total                133384                       # number of ReadExReq hits
system.l2.ReadCleanReq_hits::cpu.inst               1                       # number of ReadCleanReq hits
system.l2.ReadCleanReq_hits::total                  1                       # number of ReadCleanReq hits
system.l2.ReadSharedReq_hits::cpu.data        3740433                       # number of ReadSharedReq hits
system.l2.ReadSharedReq_hits::total           3740433                       # number of ReadSharedReq hits
system.l2.demand_hits::cpu.inst                     1                       # number of demand (read+write) hits
system.l2.demand_hits::cpu.data               3873817                       # number of demand (read+write) hits
system.l2.demand_hits::total                  3873818                       # number of demand (read+write) hits
system.l2.overall_hits::cpu.inst                    1                       # number of overall hits
system.l2.overall_hits::cpu.data              3873817                       # number of overall hits
system.l2.overall_hits::total                 3873818                       # number of overall hits
system.l2.ReadExReq_misses::cpu.data           208361                       # number of ReadExReq misses
system.l2.ReadExReq_misses::total              208361                       # number of ReadExReq misses
system.l2.ReadCleanReq_misses::cpu.inst           675                       # number of ReadCleanReq misses
system.l2.ReadCleanReq_misses::total              675                       # number of ReadCleanReq misses
system.l2.ReadSharedReq_misses::cpu.data      6143783                       # number of ReadSharedReq misses
system.l2.ReadSharedReq_misses::total         6143783                       # number of ReadSharedReq misses
system.l2.demand_misses::cpu.inst                 675                       # number of demand (read+write) misses
system.l2.demand_misses::cpu.data             6352144                       # number of demand (read+write) misses
system.l2.demand_misses::total                6352819                       # number of demand (read+write) misses
system.l2.overall_misses::cpu.inst                675                       # number of overall misses
system.l2.overall_misses::cpu.data            6352144                       # number of overall misses
system.l2.overall_misses::total               6352819                       # number of overall misses
system.l2.ReadExReq_miss_latency::cpu.data  16755512000                       # number of ReadExReq miss cycles
system.l2.ReadExReq_miss_latency::total   16755512000                       # number of ReadExReq miss cycles
system.l2.ReadCleanReq_miss_latency::cpu.inst     52335500                       # number of ReadCleanReq miss cycles
system.l2.ReadCleanReq_miss_latency::total     52335500                       # number of ReadCleanReq miss cycles
system.l2.ReadSharedReq_miss_latency::cpu.data 564823044500                       # number of ReadSharedReq miss cycles
system.l2.ReadSharedReq_miss_latency::total 564823044500                       # number of ReadSharedReq miss cycles
system.l2.demand_miss_latency::cpu.inst      52335500                       # number of demand (read+write) miss cycles
system.l2.demand_miss_latency::cpu.data  581578556500                       # number of demand (read+write) miss cycles
system.l2.demand_miss_latency::total     581630892000                       # number of demand (read+write) miss cycles
system.l2.overall_miss_latency::cpu.inst     52335500                       # number of overall miss cycles
system.l2.overall_miss_latency::cpu.data 581578556500                       # number of overall miss cycles
system.l2.overall_miss_latency::total    581630892000                       # number of overall miss cycles
system.l2.WritebackDirty_accesses::writebacks      2650285                       # number of WritebackDirty accesses(hits+misses)
system.l2.WritebackDirty_accesses::total      2650285                       # number of WritebackDirty accesses(hits+misses)
system.l2.WritebackClean_accesses::writebacks           21                       # number of WritebackClean accesses(hits+misses)
system.l2.WritebackClean_accesses::total           21                       # number of WritebackClean accesses(hits+misses)
system.l2.ReadExReq_accesses::cpu.data         341745                       # number of ReadExReq accesses(hits+misses)
system.l2.ReadExReq_accesses::total            341745                       # number of ReadExReq accesses(hits+misses)
system.l2.ReadCleanReq_accesses::cpu.inst          676                       # number of ReadCleanReq accesses(hits+misses)
system.l2.ReadCleanReq_accesses::total            676                       # number of ReadCleanReq accesses(hits+misses)
system.l2.ReadSharedReq_accesses::cpu.data      9884216                       # number of ReadSharedReq accesses(hits+misses)
system.l2.ReadSharedReq_accesses::total       9884216                       # number of ReadSharedReq accesses(hits+misses)
system.l2.demand_accesses::cpu.inst               676                       # number of demand (read+write) accesses
system.l2.demand_accesses::cpu.data          10225961                       # number of demand (read+write) accesses
system.l2.demand_accesses::total             10226637                       # number of demand (read+write) accesses
system.l2.overall_accesses::cpu.inst              676                       # number of overall (read+write) accesses
system.l2.overall_accesses::cpu.data         10225961                       # number of overall (read+write) accesses
system.l2.overall_accesses::total            10226637                       # number of overall (read+write) accesses
system.l2.ReadExReq_miss_rate::cpu.data      0.609697                       # miss rate for ReadExReq accesses
system.l2.ReadExReq_miss_rate::total         0.609697                       # miss rate for ReadExReq accesses
system.l2.ReadCleanReq_miss_rate::cpu.inst     0.998521                       # miss rate for ReadCleanReq accesses
system.l2.ReadCleanReq_miss_rate::total      0.998521                       # miss rate for ReadCleanReq accesses
system.l2.ReadSharedReq_miss_rate::cpu.data     0.621575                       # miss rate for ReadSharedReq accesses
system.l2.ReadSharedReq_miss_rate::total     0.621575                       # miss rate for ReadSharedReq accesses
system.l2.demand_miss_rate::cpu.inst         0.998521                       # miss rate for demand accesses
system.l2.demand_miss_rate::cpu.data         0.621178                       # miss rate for demand accesses
system.l2.demand_miss_rate::total            0.621203                       # miss rate for demand accesses
system.l2.overall_miss_rate::cpu.inst        0.998521                       # miss rate for overall accesses
system.l2.overall_miss_rate::cpu.data        0.621178                       # miss rate for overall accesses
system.l2.overall_miss_rate::total           0.621203                       # miss rate for overall accesses
system.l2.ReadExReq_avg_miss_latency::cpu.data 80415.778385                       # average ReadExReq miss latency
system.l2.ReadExReq_avg_miss_latency::total 80415.778385                       # average ReadExReq miss latency
system.l2.ReadCleanReq_avg_miss_latency::cpu.inst 77534.074074                       # average ReadCleanReq miss latency
system.l2.ReadCleanReq_avg_miss_latency::total 77534.074074                       # average ReadCleanReq miss latency
system.l2.ReadSharedReq_avg_miss_latency::cpu.data 91934.081087                       # average ReadSharedReq miss latency
system.l2.ReadSharedReq_avg_miss_latency::total 91934.081087                       # average ReadSharedReq miss latency
system.l2.demand_avg_miss_latency::cpu.inst 77534.074074                       # average overall miss latency
system.l2.demand_avg_miss_latency::cpu.data 91556.261398                       # average overall miss latency
system.l2.demand_avg_miss_latency::total 91554.771512                       # average overall miss latency
system.l2.overall_avg_miss_latency::cpu.inst 77534.074074                       # average overall miss latency
system.l2.overall_avg_miss_latency::cpu.data 91556.261398                       # average overall miss latency
system.l2.overall_avg_miss_latency::total 91554.771512                       # average overall miss latency
system.l2.blocked_cycles::no_mshrs                  0                       # number of cycles access was blocked
system.l2.blocked_cycles::no_targets                0                       # number of cycles access was blocked
system.l2.blocked::no_mshrs                         0                       # number of cycles access was blocked
system.l2.blocked::no_targets                       0                       # number of cycles access was blocked
system.l2.avg_blocked_cycles::no_mshrs            nan                       # average number of cycles each access was blocked
system.l2.avg_blocked_cycles::no_targets          nan                       # average number of cycles each access was blocked
system.l2.fast_writes                               0                       # number of fast writes performed
system.l2.cache_copies                              0                       # number of cache copies performed
system.l2.writebacks::writebacks              1104384                       # number of writebacks
system.l2.writebacks::total                   1104384                       # number of writebacks
system.l2.CleanEvict_mshr_misses::writebacks        95805                       # number of CleanEvict MSHR misses
system.l2.CleanEvict_mshr_misses::total         95805                       # number of CleanEvict MSHR misses
system.l2.ReadExReq_mshr_misses::cpu.data       208361                       # number of ReadExReq MSHR misses
system.l2.ReadExReq_mshr_misses::total         208361                       # number of ReadExReq MSHR misses
system.l2.ReadCleanReq_mshr_misses::cpu.inst          675                       # number of ReadCleanReq MSHR misses
system.l2.ReadCleanReq_mshr_misses::total          675                       # number of ReadCleanReq MSHR misses
system.l2.ReadSharedReq_mshr_misses::cpu.data      6143783                       # number of ReadSharedReq MSHR misses
system.l2.ReadSharedReq_mshr_misses::total      6143783                       # number of ReadSharedReq MSHR misses
system.l2.demand_mshr_misses::cpu.inst            675                       # number of demand (read+write) MSHR misses
system.l2.demand_mshr_misses::cpu.data        6352144                       # number of demand (read+write) MSHR misses
system.l2.demand_mshr_misses::total           6352819                       # number of demand (read+write) MSHR misses
system.l2.overall_mshr_misses::cpu.inst           675                       # number of overall MSHR misses
system.l2.overall_mshr_misses::cpu.data       6352144                       # number of overall MSHR misses
system.l2.overall_mshr_misses::total          6352819                       # number of overall MSHR misses
system.l2.ReadExReq_mshr_miss_latency::cpu.data  14671902000                       # number of ReadExReq MSHR miss cycles
system.l2.ReadExReq_mshr_miss_latency::total  14671902000                       # number of ReadExReq MSHR miss cycles
system.l2.ReadCleanReq_mshr_miss_latency::cpu.inst     45585500                       # number of ReadCleanReq MSHR miss cycles
system.l2.ReadCleanReq_mshr_miss_latency::total     45585500                       # number of ReadCleanReq MSHR miss cycles
system.l2.ReadSharedReq_mshr_miss_latency::cpu.data 503385214500                       # number of ReadSharedReq MSHR miss cycles
system.l2.ReadSharedReq_mshr_miss_latency::total 503385214500                       # number of ReadSharedReq MSHR miss cycles
system.l2.demand_mshr_miss_latency::cpu.inst     45585500                       # number of demand (read+write) MSHR miss cycles
system.l2.demand_mshr_miss_latency::cpu.data 518057116500                       # number of demand (read+write) MSHR miss cycles
system.l2.demand_mshr_miss_latency::total 518102702000                       # number of demand (read+write) MSHR miss cycles
system.l2.overall_mshr_miss_latency::cpu.inst     45585500                       # number of overall MSHR miss cycles
system.l2.overall_mshr_miss_latency::cpu.data 518057116500                       # number of overall MSHR miss cycles
system.l2.overall_mshr_miss_latency::total 518102702000                       # number of overall MSHR miss cycles
system.l2.CleanEvict_mshr_miss_rate::writebacks          inf                       # mshr miss rate for CleanEvict accesses
system.l2.CleanEvict_mshr_miss_rate::total          inf                       # mshr miss rate for CleanEvict accesses
system.l2.ReadExReq_mshr_miss_rate::cpu.data     0.609697                       # mshr miss rate for ReadExReq accesses
system.l2.ReadExReq_mshr_miss_rate::total     0.609697                       # mshr miss rate for ReadExReq accesses
system.l2.ReadCleanReq_mshr_miss_rate::cpu.inst     0.998521                       # mshr miss rate for ReadCleanReq accesses
system.l2.ReadCleanReq_mshr_miss_rate::total     0.998521                       # mshr miss rate for ReadCleanReq accesses
system.l2.ReadSharedReq_mshr_miss_rate::cpu.data     0.621575                       # mshr miss rate for ReadSharedReq accesses
system.l2.ReadSharedReq_mshr_miss_rate::total     0.621575                       # mshr miss rate for ReadSharedReq accesses
system.l2.demand_mshr_miss_rate::cpu.inst     0.998521                       # mshr miss rate for demand accesses
system.l2.demand_mshr_miss_rate::cpu.data     0.621178                       # mshr miss rate for demand accesses
system.l2.demand_mshr_miss_rate::total       0.621203                       # mshr miss rate for demand accesses
system.l2.overall_mshr_miss_rate::cpu.inst     0.998521                       # mshr miss rate for overall accesses
system.l2.overall_mshr_miss_rate::cpu.data     0.621178                       # mshr miss rate for overall accesses
system.l2.overall_mshr_miss_rate::total      0.621203                       # mshr miss rate for overall accesses
system.l2.ReadExReq_avg_mshr_miss_latency::cpu.data 70415.778385                       # average ReadExReq mshr miss latency
system.l2.ReadExReq_avg_mshr_miss_latency::total 70415.778385                       # average ReadExReq mshr miss latency
system.l2.ReadCleanReq_avg_mshr_miss_latency::cpu.inst 67534.074074                       # average ReadCleanReq mshr miss latency
system.l2.ReadCleanReq_avg_mshr_miss_latency::total 67534.074074                       # average ReadCleanReq mshr miss latency
system.l2.ReadSharedReq_avg_mshr_miss_latency::cpu.data 81934.081087                       # average ReadSharedReq mshr miss latency
system.l2.ReadSharedReq_avg_mshr_miss_latency::total 81934.081087                       # average ReadSharedReq mshr miss latency
system.l2.demand_avg_mshr_miss_latency::cpu.inst 67534.074074                       # average overall mshr miss latency
system.l2.demand_avg_mshr_miss_latency::cpu.data 81556.261398                       # average overall mshr miss latency
system.l2.demand_avg_mshr_miss_latency::total 81554.771512                       # average overall mshr miss latency
system.l2.overall_avg_mshr_miss_latency::cpu.inst 67534.074074                       # average overall mshr miss latency
system.l2.overall_avg_mshr_miss_latency::cpu.data 81556.261398                       # average overall mshr miss latency
system.l2.overall_avg_mshr_miss_latency::total 81554.771512                       # average overall mshr miss latency
system.l2.no_allocate_misses                        0                       # Number of misses that were no-allocate
system.membus.trans_dist::ReadResp            6144458                       # Transaction distribution
system.membus.trans_dist::WritebackDirty      1104384                       # Transaction distribution
system.membus.trans_dist::CleanEvict          5231361                       # Transaction distribution
system.membus.trans_dist::ReadExReq            208361                       # Transaction distribution
system.membus.trans_dist::ReadExResp           208361                       # Transaction distribution
system.membus.trans_dist::ReadSharedReq       6144458                       # Transaction distribution
system.membus.pkt_count_system.l2.mem_side::system.mem_ctrls.port     19041383                       # Packet count per connected master and slave (bytes)
system.membus.pkt_count_system.l2.mem_side::total     19041383                       # Packet count per connected master and slave (bytes)
system.membus.pkt_count::total               19041383                       # Packet count per connected master and slave (bytes)
system.membus.pkt_size_system.l2.mem_side::system.mem_ctrls.port    477260992                       # Cumulative packet size per connected master and slave (bytes)
system.membus.pkt_size_system.l2.mem_side::total    477260992                       # Cumulative packet size per connected master and slave (bytes)
system.membus.pkt_size::total               477260992                       # Cumulative packet size per connected master and slave (bytes)
system.membus.snoops                                0                       # Total snoops (count)
system.membus.snoop_fanout::samples          12688564                       # Request fanout histogram
system.membus.snoop_fanout::mean                    0                       # Request fanout histogram
system.membus.snoop_fanout::stdev                   0                       # Request fanout histogram
system.membus.snoop_fanout::underflows              0      0.00%      0.00% # Request fanout histogram
system.membus.snoop_fanout::0                12688564    100.00%    100.00% # Request fanout histogram
system.membus.snoop_fanout::1                       0      0.00%    100.00% # Request fanout histogram
system.membus.snoop_fanout::overflows               0      0.00%    100.00% # Request fanout histogram
system.membus.snoop_fanout::min_value               0                       # Request fanout histogram
system.membus.snoop_fanout::max_value               0                       # Request fanout histogram
system.membus.snoop_fanout::total            12688564                       # Request fanout histogram
system.membus.reqLayer2.occupancy         17113165000                       # Layer occupancy (ticks)
system.membus.reqLayer2.utilization               1.1                       # Layer utilization (%)
system.membus.respLayer1.occupancy        35431671250                       # Layer occupancy (ticks)
system.membus.respLayer1.utilization              2.2                       # Layer utilization (%)
system.tol2bus.snoop_filter.tot_requests     20450571                       # Total number of requests made to the snoop filter.
system.tol2bus.snoop_filter.hit_single_requests     10223934                       # Number of requests hitting in the snoop filter with a single holder of the requested data.
system.tol2bus.snoop_filter.hit_multi_requests            1                       # Number of requests hitting in the snoop filter with multiple (>1) holders of the requested data.
system.tol2bus.snoop_filter.tot_snoops         132421                       # Total number of snoops made to the snoop filter.
system.tol2bus.snoop_filter.hit_single_snoops       132421                       # Number of snoops hitting in the snoop filter with a single holder of the requested data.
system.tol2bus.snoop_filter.hit_multi_snoops            0                       # Number of snoops hitting in the snoop filter with multiple (>1) holders of the requested data.
system.tol2bus.trans_dist::ReadResp           9884892                       # Transaction distribution
system.tol2bus.trans_dist::WritebackDirty      3754669                       # Transaction distribution
system.tol2bus.trans_dist::WritebackClean           21                       # Transaction distribution
system.tol2bus.trans_dist::CleanEvict        12841604                       # Transaction distribution
system.tol2bus.trans_dist::ReadExReq           341745                       # Transaction distribution
system.tol2bus.trans_dist::ReadExResp          341745                       # Transaction distribution
system.tol2bus.trans_dist::ReadCleanReq           676                       # Transaction distribution
system.tol2bus.trans_dist::ReadSharedReq      9884216                       # Transaction distribution
system.tol2bus.pkt_count_system.cpu.icache.mem_side::system.l2.cpu_side         1373                       # Packet count per connected master and slave (bytes)
system.tol2bus.pkt_count_system.cpu.dcache.mem_side::system.l2.cpu_side     30675834                       # Packet count per connected master and slave (bytes)
system.tol2bus.pkt_count::total              30677207                       # Packet count per connected master and slave (bytes)
system.tol2bus.pkt_size_system.cpu.icache.mem_side::system.l2.cpu_side        44608                       # Cumulative packet size per connected master and slave (bytes)
system.tol2bus.pkt_size_system.cpu.dcache.mem_side::system.l2.cpu_side    824079744                       # Cumulative packet size per connected master and slave (bytes)
system.tol2bus.pkt_size::total              824124352                       # Cumulative packet size per connected master and slave (bytes)
system.tol2bus.snoops                         6372361                       # Total snoops (count)
system.tol2bus.snoop_fanout::samples         16598998                       # Request fanout histogram
system.tol2bus.snoop_fanout::mean            0.007978                       # Request fanout histogram
system.tol2bus.snoop_fanout::stdev           0.088961                       # Request fanout histogram
system.tol2bus.snoop_fanout::underflows             0      0.00%      0.00% # Request fanout histogram
system.tol2bus.snoop_fanout::0               16466576     99.20%     99.20% # Request fanout histogram
system.tol2bus.snoop_fanout::1                 132422      0.80%    100.00% # Request fanout histogram
system.tol2bus.snoop_fanout::2                      0      0.00%    100.00% # Request fanout histogram
system.tol2bus.snoop_fanout::3                      0      0.00%    100.00% # Request fanout histogram
system.tol2bus.snoop_fanout::4                      0      0.00%    100.00% # Request fanout histogram
system.tol2bus.snoop_fanout::overflows              0      0.00%    100.00% # Request fanout histogram
system.tol2bus.snoop_fanout::min_value              0                       # Request fanout histogram
system.tol2bus.snoop_fanout::max_value              1                       # Request fanout histogram
system.tol2bus.snoop_fanout::total           16598998                       # Request fanout histogram
system.tol2bus.reqLayer0.occupancy        12875591500                       # Layer occupancy (ticks)
system.tol2bus.reqLayer0.utilization              0.8                       # Layer utilization (%)
system.tol2bus.respLayer0.occupancy           1014000                       # Layer occupancy (ticks)
system.tol2bus.respLayer0.utilization             0.0                       # Layer utilization (%)
system.tol2bus.respLayer1.occupancy       15338941500                       # Layer occupancy (ticks)
system.tol2bus.respLayer1.utilization             1.0                       # Layer utilization (%)

---------- End Simulation Statistics   ----------
