
---------- Begin Simulation Statistics ----------
sim_seconds                                  1.173177                       # Number of seconds simulated
sim_ticks                                1173176790500                       # Number of ticks simulated
final_tick                               1173176790500                       # Number of ticks from beginning of simulation (restored from checkpoints and never reset)
sim_freq                                 1000000000000                       # Frequency of simulated ticks
host_inst_rate                                 971121                       # Simulator instruction rate (inst/s)
host_op_rate                                  1418712                       # Simulator op (including micro ops) rate (op/s)
host_tick_rate                             2278594242                       # Simulator tick rate (ticks/s)
host_mem_usage                                 828676                       # Number of bytes of host memory used
host_seconds                                   514.87                       # Real time elapsed on the host
sim_insts                                   500000001                       # Number of instructions simulated
sim_ops                                     730450447                       # Number of ops (including micro ops) simulated
system.voltage_domain.voltage                       1                       # Voltage in Volts
system.clk_domain.clock                          1000                       # Clock period in ticks
system.mem_ctrls.bytes_read::cpu.inst           63552                       # Number of bytes read from this memory
system.mem_ctrls.bytes_read::cpu.data        48819008                       # Number of bytes read from this memory
system.mem_ctrls.bytes_read::total           48882560                       # Number of bytes read from this memory
system.mem_ctrls.bytes_inst_read::cpu.inst        63552                       # Number of instructions bytes read from this memory
system.mem_ctrls.bytes_inst_read::total         63552                       # Number of instructions bytes read from this memory
system.mem_ctrls.bytes_written::writebacks     26065088                       # Number of bytes written to this memory
system.mem_ctrls.bytes_written::total        26065088                       # Number of bytes written to this memory
system.mem_ctrls.num_reads::cpu.inst              993                       # Number of read requests responded to by this memory
system.mem_ctrls.num_reads::cpu.data           762797                       # Number of read requests responded to by this memory
system.mem_ctrls.num_reads::total              763790                       # Number of read requests responded to by this memory
system.mem_ctrls.num_writes::writebacks        407267                       # Number of write requests responded to by this memory
system.mem_ctrls.num_writes::total             407267                       # Number of write requests responded to by this memory
system.mem_ctrls.bw_read::cpu.inst              54171                       # Total read bandwidth from this memory (bytes/s)
system.mem_ctrls.bw_read::cpu.data           41612661                       # Total read bandwidth from this memory (bytes/s)
system.mem_ctrls.bw_read::total              41666832                       # Total read bandwidth from this memory (bytes/s)
system.mem_ctrls.bw_inst_read::cpu.inst         54171                       # Instruction read bandwidth from this memory (bytes/s)
system.mem_ctrls.bw_inst_read::total            54171                       # Instruction read bandwidth from this memory (bytes/s)
system.mem_ctrls.bw_write::writebacks        22217528                       # Write bandwidth from this memory (bytes/s)
system.mem_ctrls.bw_write::total             22217528                       # Write bandwidth from this memory (bytes/s)
system.mem_ctrls.bw_total::writebacks        22217528                       # Total bandwidth to/from this memory (bytes/s)
system.mem_ctrls.bw_total::cpu.inst             54171                       # Total bandwidth to/from this memory (bytes/s)
system.mem_ctrls.bw_total::cpu.data          41612661                       # Total bandwidth to/from this memory (bytes/s)
system.mem_ctrls.bw_total::total             63884360                       # Total bandwidth to/from this memory (bytes/s)
system.mem_ctrls.readReqs                      763790                       # Number of read requests accepted
system.mem_ctrls.writeReqs                     407267                       # Number of write requests accepted
system.mem_ctrls.readBursts                    763790                       # Number of DRAM read bursts, including those serviced by the write queue
system.mem_ctrls.writeBursts                   407267                       # Number of DRAM write bursts, including those merged in the write queue
system.mem_ctrls.bytesReadDRAM               48496448                       # Total number of bytes read from DRAM
system.mem_ctrls.bytesReadWrQ                  386112                       # Total number of bytes read from write queue
system.mem_ctrls.bytesWritten                25935616                       # Total number of bytes written to DRAM
system.mem_ctrls.bytesReadSys                48882560                       # Total read bytes from the system interface side
system.mem_ctrls.bytesWrittenSys             26065088                       # Total written bytes from the system interface side
system.mem_ctrls.servicedByWrQ                   6033                       # Number of DRAM read bursts serviced by the write queue
system.mem_ctrls.mergedWrBursts                  1995                       # Number of DRAM write bursts merged with an existing one
system.mem_ctrls.neitherReadNorWriteReqs       339231                       # Number of requests that are neither read nor write
system.mem_ctrls.perBankRdBursts::0             49306                       # Per bank write bursts
system.mem_ctrls.perBankRdBursts::1             47679                       # Per bank write bursts
system.mem_ctrls.perBankRdBursts::2             48676                       # Per bank write bursts
system.mem_ctrls.perBankRdBursts::3             45220                       # Per bank write bursts
system.mem_ctrls.perBankRdBursts::4             45194                       # Per bank write bursts
system.mem_ctrls.perBankRdBursts::5             44308                       # Per bank write bursts
system.mem_ctrls.perBankRdBursts::6             46431                       # Per bank write bursts
system.mem_ctrls.perBankRdBursts::7             45649                       # Per bank write bursts
system.mem_ctrls.perBankRdBursts::8             43250                       # Per bank write bursts
system.mem_ctrls.perBankRdBursts::9             43489                       # Per bank write bursts
system.mem_ctrls.perBankRdBursts::10            47241                       # Per bank write bursts
system.mem_ctrls.perBankRdBursts::11            47694                       # Per bank write bursts
system.mem_ctrls.perBankRdBursts::12            49677                       # Per bank write bursts
system.mem_ctrls.perBankRdBursts::13            49498                       # Per bank write bursts
system.mem_ctrls.perBankRdBursts::14            50208                       # Per bank write bursts
system.mem_ctrls.perBankRdBursts::15            54237                       # Per bank write bursts
system.mem_ctrls.perBankWrBursts::0             26256                       # Per bank write bursts
system.mem_ctrls.perBankWrBursts::1             25637                       # Per bank write bursts
system.mem_ctrls.perBankWrBursts::2             27242                       # Per bank write bursts
system.mem_ctrls.perBankWrBursts::3             24597                       # Per bank write bursts
system.mem_ctrls.perBankWrBursts::4             24197                       # Per bank write bursts
system.mem_ctrls.perBankWrBursts::5             23352                       # Per bank write bursts
system.mem_ctrls.perBankWrBursts::6             24961                       # Per bank write bursts
system.mem_ctrls.perBankWrBursts::7             24820                       # Per bank write bursts
system.mem_ctrls.perBankWrBursts::8             23699                       # Per bank write bursts
system.mem_ctrls.perBankWrBursts::9             23729                       # Per bank write bursts
system.mem_ctrls.perBankWrBursts::10            25101                       # Per bank write bursts
system.mem_ctrls.perBankWrBursts::11            24870                       # Per bank write bursts
system.mem_ctrls.perBankWrBursts::12            25494                       # Per bank write bursts
system.mem_ctrls.perBankWrBursts::13            25834                       # Per bank write bursts
system.mem_ctrls.perBankWrBursts::14            26546                       # Per bank write bursts
system.mem_ctrls.perBankWrBursts::15            28909                       # Per bank write bursts
system.mem_ctrls.numRdRetry                         0                       # Number of times read queue was full causing retry
system.mem_ctrls.numWrRetry                         0                       # Number of times write queue was full causing retry
system.mem_ctrls.totGap                  1173143999500                       # Total gap between requests
system.mem_ctrls.readPktSize::0                     0                       # Read request sizes (log2)
system.mem_ctrls.readPktSize::1                     0                       # Read request sizes (log2)
system.mem_ctrls.readPktSize::2                     0                       # Read request sizes (log2)
system.mem_ctrls.readPktSize::3                     0                       # Read request sizes (log2)
system.mem_ctrls.readPktSize::4                     0                       # Read request sizes (log2)
system.mem_ctrls.readPktSize::5                     0                       # Read request sizes (log2)
system.mem_ctrls.readPktSize::6                763790                       # Read request sizes (log2)
system.mem_ctrls.writePktSize::0                    0                       # Write request sizes (log2)
system.mem_ctrls.writePktSize::1                    0                       # Write request sizes (log2)
system.mem_ctrls.writePktSize::2                    0                       # Write request sizes (log2)
system.mem_ctrls.writePktSize::3                    0                       # Write request sizes (log2)
system.mem_ctrls.writePktSize::4                    0                       # Write request sizes (log2)
system.mem_ctrls.writePktSize::5                    0                       # Write request sizes (log2)
system.mem_ctrls.writePktSize::6               407267                       # Write request sizes (log2)
system.mem_ctrls.rdQLenPdf::0                  749419                       # What read queue length does an incoming req see
system.mem_ctrls.rdQLenPdf::1                    8058                       # What read queue length does an incoming req see
system.mem_ctrls.rdQLenPdf::2                     147                       # What read queue length does an incoming req see
system.mem_ctrls.rdQLenPdf::3                     133                       # What read queue length does an incoming req see
system.mem_ctrls.rdQLenPdf::4                       0                       # What read queue length does an incoming req see
system.mem_ctrls.rdQLenPdf::5                       0                       # What read queue length does an incoming req see
system.mem_ctrls.rdQLenPdf::6                       0                       # What read queue length does an incoming req see
system.mem_ctrls.rdQLenPdf::7                       0                       # What read queue length does an incoming req see
system.mem_ctrls.rdQLenPdf::8                       0                       # What read queue length does an incoming req see
system.mem_ctrls.rdQLenPdf::9                       0                       # What read queue length does an incoming req see
system.mem_ctrls.rdQLenPdf::10                      0                       # What read queue length does an incoming req see
system.mem_ctrls.rdQLenPdf::11                      0                       # What read queue length does an incoming req see
system.mem_ctrls.rdQLenPdf::12                      0                       # What read queue length does an incoming req see
system.mem_ctrls.rdQLenPdf::13                      0                       # What read queue length does an incoming req see
system.mem_ctrls.rdQLenPdf::14                      0                       # What read queue length does an incoming req see
system.mem_ctrls.rdQLenPdf::15                      0                       # What read queue length does an incoming req see
system.mem_ctrls.rdQLenPdf::16                      0                       # What read queue length does an incoming req see
system.mem_ctrls.rdQLenPdf::17                      0                       # What read queue length does an incoming req see
system.mem_ctrls.rdQLenPdf::18                      0                       # What read queue length does an incoming req see
system.mem_ctrls.rdQLenPdf::19                      0                       # What read queue length does an incoming req see
system.mem_ctrls.rdQLenPdf::20                      0                       # What read queue length does an incoming req see
system.mem_ctrls.rdQLenPdf::21                      0                       # What read queue length does an incoming req see
system.mem_ctrls.rdQLenPdf::22                      0                       # What read queue length does an incoming req see
system.mem_ctrls.rdQLenPdf::23                      0                       # What read queue length does an incoming req see
system.mem_ctrls.rdQLenPdf::24                      0                       # What read queue length does an incoming req see
system.mem_ctrls.rdQLenPdf::25                      0                       # What read queue length does an incoming req see
system.mem_ctrls.rdQLenPdf::26                      0                       # What read queue length does an incoming req see
system.mem_ctrls.rdQLenPdf::27                      0                       # What read queue length does an incoming req see
system.mem_ctrls.rdQLenPdf::28                      0                       # What read queue length does an incoming req see
system.mem_ctrls.rdQLenPdf::29                      0                       # What read queue length does an incoming req see
system.mem_ctrls.rdQLenPdf::30                      0                       # What read queue length does an incoming req see
system.mem_ctrls.rdQLenPdf::31                      0                       # What read queue length does an incoming req see
system.mem_ctrls.wrQLenPdf::0                       1                       # What write queue length does an incoming req see
system.mem_ctrls.wrQLenPdf::1                       1                       # What write queue length does an incoming req see
system.mem_ctrls.wrQLenPdf::2                       1                       # What write queue length does an incoming req see
system.mem_ctrls.wrQLenPdf::3                       1                       # What write queue length does an incoming req see
system.mem_ctrls.wrQLenPdf::4                       1                       # What write queue length does an incoming req see
system.mem_ctrls.wrQLenPdf::5                       1                       # What write queue length does an incoming req see
system.mem_ctrls.wrQLenPdf::6                       1                       # What write queue length does an incoming req see
system.mem_ctrls.wrQLenPdf::7                       1                       # What write queue length does an incoming req see
system.mem_ctrls.wrQLenPdf::8                       1                       # What write queue length does an incoming req see
system.mem_ctrls.wrQLenPdf::9                       1                       # What write queue length does an incoming req see
system.mem_ctrls.wrQLenPdf::10                      1                       # What write queue length does an incoming req see
system.mem_ctrls.wrQLenPdf::11                      1                       # What write queue length does an incoming req see
system.mem_ctrls.wrQLenPdf::12                      1                       # What write queue length does an incoming req see
system.mem_ctrls.wrQLenPdf::13                      1                       # What write queue length does an incoming req see
system.mem_ctrls.wrQLenPdf::14                      1                       # What write queue length does an incoming req see
system.mem_ctrls.wrQLenPdf::15                  16139                       # What write queue length does an incoming req see
system.mem_ctrls.wrQLenPdf::16                  16886                       # What write queue length does an incoming req see
system.mem_ctrls.wrQLenPdf::17                  23284                       # What write queue length does an incoming req see
system.mem_ctrls.wrQLenPdf::18                  23285                       # What write queue length does an incoming req see
system.mem_ctrls.wrQLenPdf::19                  23264                       # What write queue length does an incoming req see
system.mem_ctrls.wrQLenPdf::20                  23262                       # What write queue length does an incoming req see
system.mem_ctrls.wrQLenPdf::21                  23262                       # What write queue length does an incoming req see
system.mem_ctrls.wrQLenPdf::22                  23261                       # What write queue length does an incoming req see
system.mem_ctrls.wrQLenPdf::23                  23261                       # What write queue length does an incoming req see
system.mem_ctrls.wrQLenPdf::24                  23261                       # What write queue length does an incoming req see
system.mem_ctrls.wrQLenPdf::25                  23261                       # What write queue length does an incoming req see
system.mem_ctrls.wrQLenPdf::26                  23261                       # What write queue length does an incoming req see
system.mem_ctrls.wrQLenPdf::27                  23263                       # What write queue length does an incoming req see
system.mem_ctrls.wrQLenPdf::28                  23263                       # What write queue length does an incoming req see
system.mem_ctrls.wrQLenPdf::29                  23264                       # What write queue length does an incoming req see
system.mem_ctrls.wrQLenPdf::30                  23260                       # What write queue length does an incoming req see
system.mem_ctrls.wrQLenPdf::31                  23260                       # What write queue length does an incoming req see
system.mem_ctrls.wrQLenPdf::32                  23260                       # What write queue length does an incoming req see
system.mem_ctrls.wrQLenPdf::33                      0                       # What write queue length does an incoming req see
system.mem_ctrls.wrQLenPdf::34                      0                       # What write queue length does an incoming req see
system.mem_ctrls.wrQLenPdf::35                      0                       # What write queue length does an incoming req see
system.mem_ctrls.wrQLenPdf::36                      0                       # What write queue length does an incoming req see
system.mem_ctrls.wrQLenPdf::37                      0                       # What write queue length does an incoming req see
system.mem_ctrls.wrQLenPdf::38                      0                       # What write queue length does an incoming req see
system.mem_ctrls.wrQLenPdf::39                      0                       # What write queue length does an incoming req see
system.mem_ctrls.wrQLenPdf::40                      0                       # What write queue length does an incoming req see
system.mem_ctrls.wrQLenPdf::41                      0                       # What write queue length does an incoming req see
system.mem_ctrls.wrQLenPdf::42                      0                       # What write queue length does an incoming req see
system.mem_ctrls.wrQLenPdf::43                      0                       # What write queue length does an incoming req see
system.mem_ctrls.wrQLenPdf::44                      0                       # What write queue length does an incoming req see
system.mem_ctrls.wrQLenPdf::45                      0                       # What write queue length does an incoming req see
system.mem_ctrls.wrQLenPdf::46                      0                       # What write queue length does an incoming req see
system.mem_ctrls.wrQLenPdf::47                      0                       # What write queue length does an incoming req see
system.mem_ctrls.wrQLenPdf::48                      0                       # What write queue length does an incoming req see
system.mem_ctrls.wrQLenPdf::49                      0                       # What write queue length does an incoming req see
system.mem_ctrls.wrQLenPdf::50                      0                       # What write queue length does an incoming req see
system.mem_ctrls.wrQLenPdf::51                      0                       # What write queue length does an incoming req see
system.mem_ctrls.wrQLenPdf::52                      0                       # What write queue length does an incoming req see
system.mem_ctrls.wrQLenPdf::53                      0                       # What write queue length does an incoming req see
system.mem_ctrls.wrQLenPdf::54                      0                       # What write queue length does an incoming req see
system.mem_ctrls.wrQLenPdf::55                      0                       # What write queue length does an incoming req see
system.mem_ctrls.wrQLenPdf::56                      0                       # What write queue length does an incoming req see
system.mem_ctrls.wrQLenPdf::57                      0                       # What write queue length does an incoming req see
system.mem_ctrls.wrQLenPdf::58                      0                       # What write queue length does an incoming req see
system.mem_ctrls.wrQLenPdf::59                      0                       # What write queue length does an incoming req see
system.mem_ctrls.wrQLenPdf::60                      0                       # What write queue length does an incoming req see
system.mem_ctrls.wrQLenPdf::61                      0                       # What write queue length does an incoming req see
system.mem_ctrls.wrQLenPdf::62                      0                       # What write queue length does an incoming req see
system.mem_ctrls.wrQLenPdf::63                      0                       # What write queue length does an incoming req see
system.mem_ctrls.bytesPerActivate::samples       595200                       # Bytes accessed per row activation
system.mem_ctrls.bytesPerActivate::mean    125.053871                       # Bytes accessed per row activation
system.mem_ctrls.bytesPerActivate::gmean    91.914803                       # Bytes accessed per row activation
system.mem_ctrls.bytesPerActivate::stdev   154.660754                       # Bytes accessed per row activation
system.mem_ctrls.bytesPerActivate::0-127       412873     69.37%     69.37% # Bytes accessed per row activation
system.mem_ctrls.bytesPerActivate::128-255       120675     20.27%     89.64% # Bytes accessed per row activation
system.mem_ctrls.bytesPerActivate::256-383        25274      4.25%     93.89% # Bytes accessed per row activation
system.mem_ctrls.bytesPerActivate::384-511         9469      1.59%     95.48% # Bytes accessed per row activation
system.mem_ctrls.bytesPerActivate::512-639        13213      2.22%     97.70% # Bytes accessed per row activation
system.mem_ctrls.bytesPerActivate::640-767         2223      0.37%     98.07% # Bytes accessed per row activation
system.mem_ctrls.bytesPerActivate::768-895         1657      0.28%     98.35% # Bytes accessed per row activation
system.mem_ctrls.bytesPerActivate::896-1023         1492      0.25%     98.60% # Bytes accessed per row activation
system.mem_ctrls.bytesPerActivate::1024-1151         8324      1.40%    100.00% # Bytes accessed per row activation
system.mem_ctrls.bytesPerActivate::total       595200                       # Bytes accessed per row activation
system.mem_ctrls.rdPerTurnAround::samples        23260                       # Reads before turning the bus around for writes
system.mem_ctrls.rdPerTurnAround::mean      32.565133                       # Reads before turning the bus around for writes
system.mem_ctrls.rdPerTurnAround::gmean     24.774460                       # Reads before turning the bus around for writes
system.mem_ctrls.rdPerTurnAround::stdev    132.501898                       # Reads before turning the bus around for writes
system.mem_ctrls.rdPerTurnAround::0-511         23218     99.82%     99.82% # Reads before turning the bus around for writes
system.mem_ctrls.rdPerTurnAround::512-1023           33      0.14%     99.96% # Reads before turning the bus around for writes
system.mem_ctrls.rdPerTurnAround::1024-1535            1      0.00%     99.97% # Reads before turning the bus around for writes
system.mem_ctrls.rdPerTurnAround::1536-2047            2      0.01%     99.97% # Reads before turning the bus around for writes
system.mem_ctrls.rdPerTurnAround::5120-5631            1      0.00%     99.98% # Reads before turning the bus around for writes
system.mem_ctrls.rdPerTurnAround::6144-6655            1      0.00%     99.98% # Reads before turning the bus around for writes
system.mem_ctrls.rdPerTurnAround::6656-7167            1      0.00%     99.99% # Reads before turning the bus around for writes
system.mem_ctrls.rdPerTurnAround::7168-7679            1      0.00%     99.99% # Reads before turning the bus around for writes
system.mem_ctrls.rdPerTurnAround::8704-9215            1      0.00%    100.00% # Reads before turning the bus around for writes
system.mem_ctrls.rdPerTurnAround::10752-11263            1      0.00%    100.00% # Reads before turning the bus around for writes
system.mem_ctrls.rdPerTurnAround::total         23260                       # Reads before turning the bus around for writes
system.mem_ctrls.wrPerTurnAround::samples        23260                       # Writes before turning the bus around for reads
system.mem_ctrls.wrPerTurnAround::mean      17.422356                       # Writes before turning the bus around for reads
system.mem_ctrls.wrPerTurnAround::gmean     17.398714                       # Writes before turning the bus around for reads
system.mem_ctrls.wrPerTurnAround::stdev      0.893022                       # Writes before turning the bus around for reads
system.mem_ctrls.wrPerTurnAround::16             6376     27.41%     27.41% # Writes before turning the bus around for reads
system.mem_ctrls.wrPerTurnAround::17              745      3.20%     30.61% # Writes before turning the bus around for reads
system.mem_ctrls.wrPerTurnAround::18            16078     69.12%     99.74% # Writes before turning the bus around for reads
system.mem_ctrls.wrPerTurnAround::19               61      0.26%    100.00% # Writes before turning the bus around for reads
system.mem_ctrls.wrPerTurnAround::total         23260                       # Writes before turning the bus around for reads
system.mem_ctrls.totQLat                  11227803250                       # Total ticks spent queuing
system.mem_ctrls.totMemAccLat             25435747000                       # Total ticks spent from burst creation until serviced by the DRAM
system.mem_ctrls.totBusLat                 3788785000                       # Total ticks spent in databus transfers
system.mem_ctrls.avgQLat                     14817.16                       # Average queueing delay per DRAM burst
system.mem_ctrls.avgBusLat                    5000.00                       # Average bus latency per DRAM burst
system.mem_ctrls.avgMemAccLat                33567.16                       # Average memory access latency per DRAM burst
system.mem_ctrls.avgRdBW                        41.34                       # Average DRAM read bandwidth in MiByte/s
system.mem_ctrls.avgWrBW                        22.11                       # Average achieved write bandwidth in MiByte/s
system.mem_ctrls.avgRdBWSys                     41.67                       # Average system read bandwidth in MiByte/s
system.mem_ctrls.avgWrBWSys                     22.22                       # Average system write bandwidth in MiByte/s
system.mem_ctrls.peakBW                      12800.00                       # Theoretical peak bandwidth in MiByte/s
system.mem_ctrls.busUtil                         0.50                       # Data bus utilization in percentage
system.mem_ctrls.busUtilRead                     0.32                       # Data bus utilization in percentage for reads
system.mem_ctrls.busUtilWrite                    0.17                       # Data bus utilization in percentage for writes
system.mem_ctrls.avgRdQLen                       1.00                       # Average read queue length when enqueuing
system.mem_ctrls.avgWrQLen                      26.01                       # Average write queue length when enqueuing
system.mem_ctrls.readRowHits                   351145                       # Number of row buffer hits during reads
system.mem_ctrls.writeRowHits                  216656                       # Number of row buffer hits during writes
system.mem_ctrls.readRowHitRate                 46.34                       # Row buffer hit rate for reads
system.mem_ctrls.writeRowHitRate                53.46                       # Row buffer hit rate for writes
system.mem_ctrls.avgGap                    1001782.15                       # Average gap between requests
system.mem_ctrls.pageHitRate                    48.82                       # Row buffer hit rate, read and write combined
system.mem_ctrls_0.actEnergy               2213424360                       # Energy for activate commands per rank (pJ)
system.mem_ctrls_0.preEnergy               1207721625                       # Energy for precharge commands per rank (pJ)
system.mem_ctrls_0.readEnergy              2905211400                       # Energy for read commands per rank (pJ)
system.mem_ctrls_0.writeEnergy             1302881760                       # Energy for write commands per rank (pJ)
system.mem_ctrls_0.refreshEnergy          76625752320                       # Energy for refresh commands per rank (pJ)
system.mem_ctrls_0.actBackEnergy         245084630805                       # Energy for active background per rank (pJ)
system.mem_ctrls_0.preBackEnergy         488915545500                       # Energy for precharge background per rank (pJ)
system.mem_ctrls_0.totalEnergy           818255167770                       # Total energy per rank (pJ)
system.mem_ctrls_0.averagePower            697.473592                       # Core power per rank (mW)
system.mem_ctrls_0.memoryStateTime::IDLE 811876165250                       # Time in different power states
system.mem_ctrls_0.memoryStateTime::REF   39174720000                       # Time in different power states
system.mem_ctrls_0.memoryStateTime::PRE_PDN            0                       # Time in different power states
system.mem_ctrls_0.memoryStateTime::ACT  322119234750                       # Time in different power states
system.mem_ctrls_0.memoryStateTime::ACT_PDN            0                       # Time in different power states
system.mem_ctrls_1.actEnergy               2286287640                       # Energy for activate commands per rank (pJ)
system.mem_ctrls_1.preEnergy               1247478375                       # Energy for precharge commands per rank (pJ)
system.mem_ctrls_1.readEnergy              3005293200                       # Energy for read commands per rank (pJ)
system.mem_ctrls_1.writeEnergy             1323099360                       # Energy for write commands per rank (pJ)
system.mem_ctrls_1.refreshEnergy          76625752320                       # Energy for refresh commands per rank (pJ)
system.mem_ctrls_1.actBackEnergy         251056519380                       # Energy for active background per rank (pJ)
system.mem_ctrls_1.preBackEnergy         483677046750                       # Energy for precharge background per rank (pJ)
system.mem_ctrls_1.totalEnergy           819221477025                       # Total energy per rank (pJ)
system.mem_ctrls_1.averagePower            698.297265                       # Core power per rank (mW)
system.mem_ctrls_1.memoryStateTime::IDLE 803106266000                       # Time in different power states
system.mem_ctrls_1.memoryStateTime::REF   39174720000                       # Time in different power states
system.mem_ctrls_1.memoryStateTime::PRE_PDN            0                       # Time in different power states
system.mem_ctrls_1.memoryStateTime::ACT  330889134000                       # Time in different power states
system.mem_ctrls_1.memoryStateTime::ACT_PDN            0                       # Time in different power states
system.cpu_voltage_domain.voltage                   1                       # Voltage in Volts
system.cpu_clk_domain.clock                       500                       # Clock period in ticks
system.cpu.apic_clk_domain.clock                 8000                       # Clock period in ticks
system.cpu.workload.num_syscalls                   86                       # Number of system calls
system.cpu.numCycles                       2346353581                       # number of cpu cycles simulated
system.cpu.numWorkItemsStarted                      0                       # number of work items this cpu started
system.cpu.numWorkItemsCompleted                    0                       # number of work items this cpu completed
system.cpu.committedInsts                   500000001                       # Number of instructions committed
system.cpu.committedOps                     730450447                       # Number of ops (including micro ops) committed
system.cpu.num_int_alu_accesses             729688907                       # Number of integer alu accesses
system.cpu.num_fp_alu_accesses                    663                       # Number of float alu accesses
system.cpu.num_func_calls                     1453961                       # number of times a function call or return occured
system.cpu.num_conditional_control_insts     31770496                       # number of instructions that are conditional controls
system.cpu.num_int_insts                    729688907                       # number of integer instructions
system.cpu.num_fp_insts                           663                       # number of float instructions
system.cpu.num_int_register_reads          1698743410                       # number of times the integer registers were read
system.cpu.num_int_register_writes          621892952                       # number of times the integer registers were written
system.cpu.num_fp_register_reads                 1009                       # number of times the floating registers were read
system.cpu.num_fp_register_writes                 429                       # number of times the floating registers were written
system.cpu.num_cc_register_reads            180840558                       # number of times the CC registers were read
system.cpu.num_cc_register_writes           276245127                       # number of times the CC registers were written
system.cpu.num_mem_refs                     295985459                       # number of memory refs
system.cpu.num_load_insts                   225946750                       # Number of load instructions
system.cpu.num_store_insts                   70038709                       # Number of store instructions
system.cpu.num_idle_cycles                          0                       # Number of idle cycles
system.cpu.num_busy_cycles                 2346353581                       # Number of busy cycles
system.cpu.not_idle_fraction                        1                       # Percentage of non-idle cycles
system.cpu.idle_fraction                            0                       # Percentage of idle cycles
system.cpu.Branches                          37843296                       # Number of branches fetched
system.cpu.op_class::No_OpClass                 94739      0.01%      0.01% # Class of executed instruction
system.cpu.op_class::IntAlu                 434349070     59.46%     59.48% # Class of executed instruction
system.cpu.op_class::IntMult                    20662      0.00%     59.48% # Class of executed instruction
system.cpu.op_class::IntDiv                       119      0.00%     59.48% # Class of executed instruction
system.cpu.op_class::FloatAdd                     398      0.00%     59.48% # Class of executed instruction
system.cpu.op_class::FloatCmp                       0      0.00%     59.48% # Class of executed instruction
system.cpu.op_class::FloatCvt                       0      0.00%     59.48% # Class of executed instruction
system.cpu.op_class::FloatMult                      0      0.00%     59.48% # Class of executed instruction
system.cpu.op_class::FloatDiv                       0      0.00%     59.48% # Class of executed instruction
system.cpu.op_class::FloatSqrt                      0      0.00%     59.48% # Class of executed instruction
system.cpu.op_class::SimdAdd                        0      0.00%     59.48% # Class of executed instruction
system.cpu.op_class::SimdAddAcc                     0      0.00%     59.48% # Class of executed instruction
system.cpu.op_class::SimdAlu                        0      0.00%     59.48% # Class of executed instruction
system.cpu.op_class::SimdCmp                        0      0.00%     59.48% # Class of executed instruction
system.cpu.op_class::SimdCvt                        0      0.00%     59.48% # Class of executed instruction
system.cpu.op_class::SimdMisc                       0      0.00%     59.48% # Class of executed instruction
system.cpu.op_class::SimdMult                       0      0.00%     59.48% # Class of executed instruction
system.cpu.op_class::SimdMultAcc                    0      0.00%     59.48% # Class of executed instruction
system.cpu.op_class::SimdShift                      0      0.00%     59.48% # Class of executed instruction
system.cpu.op_class::SimdShiftAcc                   0      0.00%     59.48% # Class of executed instruction
system.cpu.op_class::SimdSqrt                       0      0.00%     59.48% # Class of executed instruction
system.cpu.op_class::SimdFloatAdd                   0      0.00%     59.48% # Class of executed instruction
system.cpu.op_class::SimdFloatAlu                   0      0.00%     59.48% # Class of executed instruction
system.cpu.op_class::SimdFloatCmp                   0      0.00%     59.48% # Class of executed instruction
system.cpu.op_class::SimdFloatCvt                   0      0.00%     59.48% # Class of executed instruction
system.cpu.op_class::SimdFloatDiv                   0      0.00%     59.48% # Class of executed instruction
system.cpu.op_class::SimdFloatMisc                  0      0.00%     59.48% # Class of executed instruction
system.cpu.op_class::SimdFloatMult                  0      0.00%     59.48% # Class of executed instruction
system.cpu.op_class::SimdFloatMultAcc               0      0.00%     59.48% # Class of executed instruction
system.cpu.op_class::SimdFloatSqrt                  0      0.00%     59.48% # Class of executed instruction
system.cpu.op_class::MemRead                225946750     30.93%     90.41% # Class of executed instruction
system.cpu.op_class::MemWrite                70038709      9.59%    100.00% # Class of executed instruction
system.cpu.op_class::IprAccess                      0      0.00%    100.00% # Class of executed instruction
system.cpu.op_class::InstPrefetch                   0      0.00%    100.00% # Class of executed instruction
system.cpu.op_class::total                  730450447                       # Class of executed instruction
system.cpu.dcache.tags.replacements          11296169                       # number of replacements
system.cpu.dcache.tags.tagsinuse            15.999982                       # Cycle average of tags in use
system.cpu.dcache.tags.total_refs           284689282                       # Total number of references to valid blocks.
system.cpu.dcache.tags.sampled_refs          11296185                       # Sample count of references to valid blocks.
system.cpu.dcache.tags.avg_refs             25.202250                       # Average number of references to valid blocks.
system.cpu.dcache.tags.warmup_cycle           2861500                       # Cycle when the warmup percentage was hit.
system.cpu.dcache.tags.occ_blocks::cpu.data    15.999982                       # Average occupied blocks per requestor
system.cpu.dcache.tags.occ_percent::cpu.data     0.999999                       # Average percentage of cache occupancy
system.cpu.dcache.tags.occ_percent::total     0.999999                       # Average percentage of cache occupancy
system.cpu.dcache.tags.occ_task_id_blocks::1024           16                       # Occupied blocks per task id
system.cpu.dcache.tags.age_task_id_blocks_1024::0            1                       # Occupied blocks per task id
system.cpu.dcache.tags.age_task_id_blocks_1024::1            7                       # Occupied blocks per task id
system.cpu.dcache.tags.age_task_id_blocks_1024::2            4                       # Occupied blocks per task id
system.cpu.dcache.tags.age_task_id_blocks_1024::3            4                       # Occupied blocks per task id
system.cpu.dcache.tags.occ_task_id_percent::1024            1                       # Percentage of cache occupancy per task id
system.cpu.dcache.tags.tag_accesses         603267119                       # Number of tag accesses
system.cpu.dcache.tags.data_accesses        603267119                       # Number of data accesses
system.cpu.dcache.ReadReq_hits::cpu.data    216513701                       # number of ReadReq hits
system.cpu.dcache.ReadReq_hits::total       216513701                       # number of ReadReq hits
system.cpu.dcache.WriteReq_hits::cpu.data     68175581                       # number of WriteReq hits
system.cpu.dcache.WriteReq_hits::total       68175581                       # number of WriteReq hits
system.cpu.dcache.demand_hits::cpu.data     284689282                       # number of demand (read+write) hits
system.cpu.dcache.demand_hits::total        284689282                       # number of demand (read+write) hits
system.cpu.dcache.overall_hits::cpu.data    284689282                       # number of overall hits
system.cpu.dcache.overall_hits::total       284689282                       # number of overall hits
system.cpu.dcache.ReadReq_misses::cpu.data      9416672                       # number of ReadReq misses
system.cpu.dcache.ReadReq_misses::total       9416672                       # number of ReadReq misses
system.cpu.dcache.WriteReq_misses::cpu.data      1863129                       # number of WriteReq misses
system.cpu.dcache.WriteReq_misses::total      1863129                       # number of WriteReq misses
system.cpu.dcache.SoftPFReq_misses::cpu.data        16384                       # number of SoftPFReq misses
system.cpu.dcache.SoftPFReq_misses::total        16384                       # number of SoftPFReq misses
system.cpu.dcache.demand_misses::cpu.data     11279801                       # number of demand (read+write) misses
system.cpu.dcache.demand_misses::total       11279801                       # number of demand (read+write) misses
system.cpu.dcache.overall_misses::cpu.data     11296185                       # number of overall misses
system.cpu.dcache.overall_misses::total      11296185                       # number of overall misses
system.cpu.dcache.ReadReq_miss_latency::cpu.data 152960788000                       # number of ReadReq miss cycles
system.cpu.dcache.ReadReq_miss_latency::total 152960788000                       # number of ReadReq miss cycles
system.cpu.dcache.WriteReq_miss_latency::cpu.data  48006333000                       # number of WriteReq miss cycles
system.cpu.dcache.WriteReq_miss_latency::total  48006333000                       # number of WriteReq miss cycles
system.cpu.dcache.demand_miss_latency::cpu.data 200967121000                       # number of demand (read+write) miss cycles
system.cpu.dcache.demand_miss_latency::total 200967121000                       # number of demand (read+write) miss cycles
system.cpu.dcache.overall_miss_latency::cpu.data 200967121000                       # number of overall miss cycles
system.cpu.dcache.overall_miss_latency::total 200967121000                       # number of overall miss cycles
system.cpu.dcache.ReadReq_accesses::cpu.data    225930373                       # number of ReadReq accesses(hits+misses)
system.cpu.dcache.ReadReq_accesses::total    225930373                       # number of ReadReq accesses(hits+misses)
system.cpu.dcache.WriteReq_accesses::cpu.data     70038710                       # number of WriteReq accesses(hits+misses)
system.cpu.dcache.WriteReq_accesses::total     70038710                       # number of WriteReq accesses(hits+misses)
system.cpu.dcache.SoftPFReq_accesses::cpu.data        16384                       # number of SoftPFReq accesses(hits+misses)
system.cpu.dcache.SoftPFReq_accesses::total        16384                       # number of SoftPFReq accesses(hits+misses)
system.cpu.dcache.demand_accesses::cpu.data    295969083                       # number of demand (read+write) accesses
system.cpu.dcache.demand_accesses::total    295969083                       # number of demand (read+write) accesses
system.cpu.dcache.overall_accesses::cpu.data    295985467                       # number of overall (read+write) accesses
system.cpu.dcache.overall_accesses::total    295985467                       # number of overall (read+write) accesses
system.cpu.dcache.ReadReq_miss_rate::cpu.data     0.041680                       # miss rate for ReadReq accesses
system.cpu.dcache.ReadReq_miss_rate::total     0.041680                       # miss rate for ReadReq accesses
system.cpu.dcache.WriteReq_miss_rate::cpu.data     0.026601                       # miss rate for WriteReq accesses
system.cpu.dcache.WriteReq_miss_rate::total     0.026601                       # miss rate for WriteReq accesses
system.cpu.dcache.SoftPFReq_miss_rate::cpu.data            1                       # miss rate for SoftPFReq accesses
system.cpu.dcache.SoftPFReq_miss_rate::total            1                       # miss rate for SoftPFReq accesses
system.cpu.dcache.demand_miss_rate::cpu.data     0.038111                       # miss rate for demand accesses
system.cpu.dcache.demand_miss_rate::total     0.038111                       # miss rate for demand accesses
system.cpu.dcache.overall_miss_rate::cpu.data     0.038165                       # miss rate for overall accesses
system.cpu.dcache.overall_miss_rate::total     0.038165                       # miss rate for overall accesses
system.cpu.dcache.ReadReq_avg_miss_latency::cpu.data 16243.614305                       # average ReadReq miss latency
system.cpu.dcache.ReadReq_avg_miss_latency::total 16243.614305                       # average ReadReq miss latency
system.cpu.dcache.WriteReq_avg_miss_latency::cpu.data 25766.510531                       # average WriteReq miss latency
system.cpu.dcache.WriteReq_avg_miss_latency::total 25766.510531                       # average WriteReq miss latency
system.cpu.dcache.demand_avg_miss_latency::cpu.data 17816.548448                       # average overall miss latency
system.cpu.dcache.demand_avg_miss_latency::total 17816.548448                       # average overall miss latency
system.cpu.dcache.overall_avg_miss_latency::cpu.data 17790.707305                       # average overall miss latency
system.cpu.dcache.overall_avg_miss_latency::total 17790.707305                       # average overall miss latency
system.cpu.dcache.blocked_cycles::no_mshrs        66047                       # number of cycles access was blocked
system.cpu.dcache.blocked_cycles::no_targets            0                       # number of cycles access was blocked
system.cpu.dcache.blocked::no_mshrs              1034                       # number of cycles access was blocked
system.cpu.dcache.blocked::no_targets               0                       # number of cycles access was blocked
system.cpu.dcache.avg_blocked_cycles::no_mshrs    63.875242                       # average number of cycles each access was blocked
system.cpu.dcache.avg_blocked_cycles::no_targets          nan                       # average number of cycles each access was blocked
system.cpu.dcache.fast_writes                       0                       # number of fast writes performed
system.cpu.dcache.cache_copies                      0                       # number of cache copies performed
system.cpu.dcache.writebacks::writebacks      6275533                       # number of writebacks
system.cpu.dcache.writebacks::total           6275533                       # number of writebacks
system.cpu.dcache.ReadReq_mshr_misses::cpu.data      9416672                       # number of ReadReq MSHR misses
system.cpu.dcache.ReadReq_mshr_misses::total      9416672                       # number of ReadReq MSHR misses
system.cpu.dcache.WriteReq_mshr_misses::cpu.data      1863129                       # number of WriteReq MSHR misses
system.cpu.dcache.WriteReq_mshr_misses::total      1863129                       # number of WriteReq MSHR misses
system.cpu.dcache.SoftPFReq_mshr_misses::cpu.data        16384                       # number of SoftPFReq MSHR misses
system.cpu.dcache.SoftPFReq_mshr_misses::total        16384                       # number of SoftPFReq MSHR misses
system.cpu.dcache.demand_mshr_misses::cpu.data     11279801                       # number of demand (read+write) MSHR misses
system.cpu.dcache.demand_mshr_misses::total     11279801                       # number of demand (read+write) MSHR misses
system.cpu.dcache.overall_mshr_misses::cpu.data     11296185                       # number of overall MSHR misses
system.cpu.dcache.overall_mshr_misses::total     11296185                       # number of overall MSHR misses
system.cpu.dcache.ReadReq_mshr_miss_latency::cpu.data 143544116000                       # number of ReadReq MSHR miss cycles
system.cpu.dcache.ReadReq_mshr_miss_latency::total 143544116000                       # number of ReadReq MSHR miss cycles
system.cpu.dcache.WriteReq_mshr_miss_latency::cpu.data  46143204000                       # number of WriteReq MSHR miss cycles
system.cpu.dcache.WriteReq_mshr_miss_latency::total  46143204000                       # number of WriteReq MSHR miss cycles
system.cpu.dcache.SoftPFReq_mshr_miss_latency::cpu.data   1290471996                       # number of SoftPFReq MSHR miss cycles
system.cpu.dcache.SoftPFReq_mshr_miss_latency::total   1290471996                       # number of SoftPFReq MSHR miss cycles
system.cpu.dcache.demand_mshr_miss_latency::cpu.data 189687320000                       # number of demand (read+write) MSHR miss cycles
system.cpu.dcache.demand_mshr_miss_latency::total 189687320000                       # number of demand (read+write) MSHR miss cycles
system.cpu.dcache.overall_mshr_miss_latency::cpu.data 190977791996                       # number of overall MSHR miss cycles
system.cpu.dcache.overall_mshr_miss_latency::total 190977791996                       # number of overall MSHR miss cycles
system.cpu.dcache.ReadReq_mshr_miss_rate::cpu.data     0.041680                       # mshr miss rate for ReadReq accesses
system.cpu.dcache.ReadReq_mshr_miss_rate::total     0.041680                       # mshr miss rate for ReadReq accesses
system.cpu.dcache.WriteReq_mshr_miss_rate::cpu.data     0.026601                       # mshr miss rate for WriteReq accesses
system.cpu.dcache.WriteReq_mshr_miss_rate::total     0.026601                       # mshr miss rate for WriteReq accesses
system.cpu.dcache.SoftPFReq_mshr_miss_rate::cpu.data            1                       # mshr miss rate for SoftPFReq accesses
system.cpu.dcache.SoftPFReq_mshr_miss_rate::total            1                       # mshr miss rate for SoftPFReq accesses
system.cpu.dcache.demand_mshr_miss_rate::cpu.data     0.038111                       # mshr miss rate for demand accesses
system.cpu.dcache.demand_mshr_miss_rate::total     0.038111                       # mshr miss rate for demand accesses
system.cpu.dcache.overall_mshr_miss_rate::cpu.data     0.038165                       # mshr miss rate for overall accesses
system.cpu.dcache.overall_mshr_miss_rate::total     0.038165                       # mshr miss rate for overall accesses
system.cpu.dcache.ReadReq_avg_mshr_miss_latency::cpu.data 15243.614305                       # average ReadReq mshr miss latency
system.cpu.dcache.ReadReq_avg_mshr_miss_latency::total 15243.614305                       # average ReadReq mshr miss latency
system.cpu.dcache.WriteReq_avg_mshr_miss_latency::cpu.data 24766.510531                       # average WriteReq mshr miss latency
system.cpu.dcache.WriteReq_avg_mshr_miss_latency::total 24766.510531                       # average WriteReq mshr miss latency
system.cpu.dcache.SoftPFReq_avg_mshr_miss_latency::cpu.data 78764.159912                       # average SoftPFReq mshr miss latency
system.cpu.dcache.SoftPFReq_avg_mshr_miss_latency::total 78764.159912                       # average SoftPFReq mshr miss latency
system.cpu.dcache.demand_avg_mshr_miss_latency::cpu.data 16816.548448                       # average overall mshr miss latency
system.cpu.dcache.demand_avg_mshr_miss_latency::total 16816.548448                       # average overall mshr miss latency
system.cpu.dcache.overall_avg_mshr_miss_latency::cpu.data 16906.397336                       # average overall mshr miss latency
system.cpu.dcache.overall_avg_mshr_miss_latency::total 16906.397336                       # average overall mshr miss latency
system.cpu.dcache.no_allocate_misses                0                       # Number of misses that were no-allocate
system.cpu.dtb_walker_cache.tags.replacements            0                       # number of replacements
system.cpu.dtb_walker_cache.tags.tagsinuse            0                       # Cycle average of tags in use
system.cpu.dtb_walker_cache.tags.total_refs            0                       # Total number of references to valid blocks.
system.cpu.dtb_walker_cache.tags.sampled_refs            0                       # Sample count of references to valid blocks.
system.cpu.dtb_walker_cache.tags.avg_refs          nan                       # Average number of references to valid blocks.
system.cpu.dtb_walker_cache.tags.warmup_cycle            0                       # Cycle when the warmup percentage was hit.
system.cpu.dtb_walker_cache.tags.tag_accesses            0                       # Number of tag accesses
system.cpu.dtb_walker_cache.tags.data_accesses            0                       # Number of data accesses
system.cpu.dtb_walker_cache.blocked_cycles::no_mshrs            0                       # number of cycles access was blocked
system.cpu.dtb_walker_cache.blocked_cycles::no_targets            0                       # number of cycles access was blocked
system.cpu.dtb_walker_cache.blocked::no_mshrs            0                       # number of cycles access was blocked
system.cpu.dtb_walker_cache.blocked::no_targets            0                       # number of cycles access was blocked
system.cpu.dtb_walker_cache.avg_blocked_cycles::no_mshrs          nan                       # average number of cycles each access was blocked
system.cpu.dtb_walker_cache.avg_blocked_cycles::no_targets          nan                       # average number of cycles each access was blocked
system.cpu.dtb_walker_cache.fast_writes             0                       # number of fast writes performed
system.cpu.dtb_walker_cache.cache_copies            0                       # number of cache copies performed
system.cpu.dtb_walker_cache.no_allocate_misses            0                       # Number of misses that were no-allocate
system.cpu.icache.tags.replacements                45                       # number of replacements
system.cpu.icache.tags.tagsinuse           662.410304                       # Cycle average of tags in use
system.cpu.icache.tags.total_refs           687396869                       # Total number of references to valid blocks.
system.cpu.icache.tags.sampled_refs               994                       # Sample count of references to valid blocks.
system.cpu.icache.tags.avg_refs          691546.145875                       # Average number of references to valid blocks.
system.cpu.icache.tags.warmup_cycle                 0                       # Cycle when the warmup percentage was hit.
system.cpu.icache.tags.occ_blocks::cpu.inst   662.410304                       # Average occupied blocks per requestor
system.cpu.icache.tags.occ_percent::cpu.inst     0.323443                       # Average percentage of cache occupancy
system.cpu.icache.tags.occ_percent::total     0.323443                       # Average percentage of cache occupancy
system.cpu.icache.tags.occ_task_id_blocks::1024          949                       # Occupied blocks per task id
system.cpu.icache.tags.age_task_id_blocks_1024::1            7                       # Occupied blocks per task id
system.cpu.icache.tags.age_task_id_blocks_1024::3           25                       # Occupied blocks per task id
system.cpu.icache.tags.age_task_id_blocks_1024::4          917                       # Occupied blocks per task id
system.cpu.icache.tags.occ_task_id_percent::1024     0.463379                       # Percentage of cache occupancy per task id
system.cpu.icache.tags.tag_accesses        1374796720                       # Number of tag accesses
system.cpu.icache.tags.data_accesses       1374796720                       # Number of data accesses
system.cpu.icache.ReadReq_hits::cpu.inst    687396869                       # number of ReadReq hits
system.cpu.icache.ReadReq_hits::total       687396869                       # number of ReadReq hits
system.cpu.icache.demand_hits::cpu.inst     687396869                       # number of demand (read+write) hits
system.cpu.icache.demand_hits::total        687396869                       # number of demand (read+write) hits
system.cpu.icache.overall_hits::cpu.inst    687396869                       # number of overall hits
system.cpu.icache.overall_hits::total       687396869                       # number of overall hits
system.cpu.icache.ReadReq_misses::cpu.inst          994                       # number of ReadReq misses
system.cpu.icache.ReadReq_misses::total           994                       # number of ReadReq misses
system.cpu.icache.demand_misses::cpu.inst          994                       # number of demand (read+write) misses
system.cpu.icache.demand_misses::total            994                       # number of demand (read+write) misses
system.cpu.icache.overall_misses::cpu.inst          994                       # number of overall misses
system.cpu.icache.overall_misses::total           994                       # number of overall misses
system.cpu.icache.ReadReq_miss_latency::cpu.inst     78093500                       # number of ReadReq miss cycles
system.cpu.icache.ReadReq_miss_latency::total     78093500                       # number of ReadReq miss cycles
system.cpu.icache.demand_miss_latency::cpu.inst     78093500                       # number of demand (read+write) miss cycles
system.cpu.icache.demand_miss_latency::total     78093500                       # number of demand (read+write) miss cycles
system.cpu.icache.overall_miss_latency::cpu.inst     78093500                       # number of overall miss cycles
system.cpu.icache.overall_miss_latency::total     78093500                       # number of overall miss cycles
system.cpu.icache.ReadReq_accesses::cpu.inst    687397863                       # number of ReadReq accesses(hits+misses)
system.cpu.icache.ReadReq_accesses::total    687397863                       # number of ReadReq accesses(hits+misses)
system.cpu.icache.demand_accesses::cpu.inst    687397863                       # number of demand (read+write) accesses
system.cpu.icache.demand_accesses::total    687397863                       # number of demand (read+write) accesses
system.cpu.icache.overall_accesses::cpu.inst    687397863                       # number of overall (read+write) accesses
system.cpu.icache.overall_accesses::total    687397863                       # number of overall (read+write) accesses
system.cpu.icache.ReadReq_miss_rate::cpu.inst     0.000001                       # miss rate for ReadReq accesses
system.cpu.icache.ReadReq_miss_rate::total     0.000001                       # miss rate for ReadReq accesses
system.cpu.icache.demand_miss_rate::cpu.inst     0.000001                       # miss rate for demand accesses
system.cpu.icache.demand_miss_rate::total     0.000001                       # miss rate for demand accesses
system.cpu.icache.overall_miss_rate::cpu.inst     0.000001                       # miss rate for overall accesses
system.cpu.icache.overall_miss_rate::total     0.000001                       # miss rate for overall accesses
system.cpu.icache.ReadReq_avg_miss_latency::cpu.inst 78564.889336                       # average ReadReq miss latency
system.cpu.icache.ReadReq_avg_miss_latency::total 78564.889336                       # average ReadReq miss latency
system.cpu.icache.demand_avg_miss_latency::cpu.inst 78564.889336                       # average overall miss latency
system.cpu.icache.demand_avg_miss_latency::total 78564.889336                       # average overall miss latency
system.cpu.icache.overall_avg_miss_latency::cpu.inst 78564.889336                       # average overall miss latency
system.cpu.icache.overall_avg_miss_latency::total 78564.889336                       # average overall miss latency
system.cpu.icache.blocked_cycles::no_mshrs            0                       # number of cycles access was blocked
system.cpu.icache.blocked_cycles::no_targets            0                       # number of cycles access was blocked
system.cpu.icache.blocked::no_mshrs                 0                       # number of cycles access was blocked
system.cpu.icache.blocked::no_targets               0                       # number of cycles access was blocked
system.cpu.icache.avg_blocked_cycles::no_mshrs          nan                       # average number of cycles each access was blocked
system.cpu.icache.avg_blocked_cycles::no_targets          nan                       # average number of cycles each access was blocked
system.cpu.icache.fast_writes                       0                       # number of fast writes performed
system.cpu.icache.cache_copies                      0                       # number of cache copies performed
system.cpu.icache.writebacks::writebacks           45                       # number of writebacks
system.cpu.icache.writebacks::total                45                       # number of writebacks
system.cpu.icache.ReadReq_mshr_misses::cpu.inst          994                       # number of ReadReq MSHR misses
system.cpu.icache.ReadReq_mshr_misses::total          994                       # number of ReadReq MSHR misses
system.cpu.icache.demand_mshr_misses::cpu.inst          994                       # number of demand (read+write) MSHR misses
system.cpu.icache.demand_mshr_misses::total          994                       # number of demand (read+write) MSHR misses
system.cpu.icache.overall_mshr_misses::cpu.inst          994                       # number of overall MSHR misses
system.cpu.icache.overall_mshr_misses::total          994                       # number of overall MSHR misses
system.cpu.icache.ReadReq_mshr_miss_latency::cpu.inst     77099500                       # number of ReadReq MSHR miss cycles
system.cpu.icache.ReadReq_mshr_miss_latency::total     77099500                       # number of ReadReq MSHR miss cycles
system.cpu.icache.demand_mshr_miss_latency::cpu.inst     77099500                       # number of demand (read+write) MSHR miss cycles
system.cpu.icache.demand_mshr_miss_latency::total     77099500                       # number of demand (read+write) MSHR miss cycles
system.cpu.icache.overall_mshr_miss_latency::cpu.inst     77099500                       # number of overall MSHR miss cycles
system.cpu.icache.overall_mshr_miss_latency::total     77099500                       # number of overall MSHR miss cycles
system.cpu.icache.ReadReq_mshr_miss_rate::cpu.inst     0.000001                       # mshr miss rate for ReadReq accesses
system.cpu.icache.ReadReq_mshr_miss_rate::total     0.000001                       # mshr miss rate for ReadReq accesses
system.cpu.icache.demand_mshr_miss_rate::cpu.inst     0.000001                       # mshr miss rate for demand accesses
system.cpu.icache.demand_mshr_miss_rate::total     0.000001                       # mshr miss rate for demand accesses
system.cpu.icache.overall_mshr_miss_rate::cpu.inst     0.000001                       # mshr miss rate for overall accesses
system.cpu.icache.overall_mshr_miss_rate::total     0.000001                       # mshr miss rate for overall accesses
system.cpu.icache.ReadReq_avg_mshr_miss_latency::cpu.inst 77564.889336                       # average ReadReq mshr miss latency
system.cpu.icache.ReadReq_avg_mshr_miss_latency::total 77564.889336                       # average ReadReq mshr miss latency
system.cpu.icache.demand_avg_mshr_miss_latency::cpu.inst 77564.889336                       # average overall mshr miss latency
system.cpu.icache.demand_avg_mshr_miss_latency::total 77564.889336                       # average overall mshr miss latency
system.cpu.icache.overall_avg_mshr_miss_latency::cpu.inst 77564.889336                       # average overall mshr miss latency
system.cpu.icache.overall_avg_mshr_miss_latency::total 77564.889336                       # average overall mshr miss latency
system.cpu.icache.no_allocate_misses                0                       # Number of misses that were no-allocate
system.cpu.itb_walker_cache.tags.replacements            0                       # number of replacements
system.cpu.itb_walker_cache.tags.tagsinuse            0                       # Cycle average of tags in use
system.cpu.itb_walker_cache.tags.total_refs            0                       # Total number of references to valid blocks.
system.cpu.itb_walker_cache.tags.sampled_refs            0                       # Sample count of references to valid blocks.
system.cpu.itb_walker_cache.tags.avg_refs          nan                       # Average number of references to valid blocks.
system.cpu.itb_walker_cache.tags.warmup_cycle            0                       # Cycle when the warmup percentage was hit.
system.cpu.itb_walker_cache.tags.tag_accesses            0                       # Number of tag accesses
system.cpu.itb_walker_cache.tags.data_accesses            0                       # Number of data accesses
system.cpu.itb_walker_cache.blocked_cycles::no_mshrs            0                       # number of cycles access was blocked
system.cpu.itb_walker_cache.blocked_cycles::no_targets            0                       # number of cycles access was blocked
system.cpu.itb_walker_cache.blocked::no_mshrs            0                       # number of cycles access was blocked
system.cpu.itb_walker_cache.blocked::no_targets            0                       # number of cycles access was blocked
system.cpu.itb_walker_cache.avg_blocked_cycles::no_mshrs          nan                       # average number of cycles each access was blocked
system.cpu.itb_walker_cache.avg_blocked_cycles::no_targets          nan                       # average number of cycles each access was blocked
system.cpu.itb_walker_cache.fast_writes             0                       # number of fast writes performed
system.cpu.itb_walker_cache.cache_copies            0                       # number of cache copies performed
system.cpu.itb_walker_cache.no_allocate_misses            0                       # Number of misses that were no-allocate
system.l2.tags.replacements                    748803                       # number of replacements
system.l2.tags.tagsinuse                 16332.087476                       # Cycle average of tags in use
system.l2.tags.total_refs                    19961651                       # Total number of references to valid blocks.
system.l2.tags.sampled_refs                    765184                       # Sample count of references to valid blocks.
system.l2.tags.avg_refs                     26.087387                       # Average number of references to valid blocks.
system.l2.tags.warmup_cycle                9882459500                       # Cycle when the warmup percentage was hit.
system.l2.tags.occ_blocks::writebacks     8238.193519                       # Average occupied blocks per requestor
system.l2.tags.occ_blocks::cpu.inst          3.990085                       # Average occupied blocks per requestor
system.l2.tags.occ_blocks::cpu.data       8089.903872                       # Average occupied blocks per requestor
system.l2.tags.occ_percent::writebacks       0.502819                       # Average percentage of cache occupancy
system.l2.tags.occ_percent::cpu.inst         0.000244                       # Average percentage of cache occupancy
system.l2.tags.occ_percent::cpu.data         0.493769                       # Average percentage of cache occupancy
system.l2.tags.occ_percent::total            0.996832                       # Average percentage of cache occupancy
system.l2.tags.occ_task_id_blocks::1024         16381                       # Occupied blocks per task id
system.l2.tags.age_task_id_blocks_1024::1           10                       # Occupied blocks per task id
system.l2.tags.age_task_id_blocks_1024::2           15                       # Occupied blocks per task id
system.l2.tags.age_task_id_blocks_1024::3          347                       # Occupied blocks per task id
system.l2.tags.age_task_id_blocks_1024::4        16009                       # Occupied blocks per task id
system.l2.tags.occ_task_id_percent::1024     0.999817                       # Percentage of cache occupancy per task id
system.l2.tags.tag_accesses                  25221706                       # Number of tag accesses
system.l2.tags.data_accesses                 25221706                       # Number of data accesses
system.l2.WritebackDirty_hits::writebacks      6275533                       # number of WritebackDirty hits
system.l2.WritebackDirty_hits::total          6275533                       # number of WritebackDirty hits
system.l2.WritebackClean_hits::writebacks           45                       # number of WritebackClean hits
system.l2.WritebackClean_hits::total               45                       # number of WritebackClean hits
system.l2.ReadExReq_hits::cpu.data            1543754                       # number of ReadExReq hits
system.l2.ReadExReq_hits::total               1543754                       # number of ReadExReq hits
system.l2.ReadCleanReq_hits::cpu.inst               1                       # number of ReadCleanReq hits
system.l2.ReadCleanReq_hits::total                  1                       # number of ReadCleanReq hits
system.l2.ReadSharedReq_hits::cpu.data        8989634                       # number of ReadSharedReq hits
system.l2.ReadSharedReq_hits::total           8989634                       # number of ReadSharedReq hits
system.l2.demand_hits::cpu.inst                     1                       # number of demand (read+write) hits
system.l2.demand_hits::cpu.data              10533388                       # number of demand (read+write) hits
system.l2.demand_hits::total                 10533389                       # number of demand (read+write) hits
system.l2.overall_hits::cpu.inst                    1                       # number of overall hits
system.l2.overall_hits::cpu.data             10533388                       # number of overall hits
system.l2.overall_hits::total                10533389                       # number of overall hits
system.l2.ReadExReq_misses::cpu.data           319375                       # number of ReadExReq misses
system.l2.ReadExReq_misses::total              319375                       # number of ReadExReq misses
system.l2.ReadCleanReq_misses::cpu.inst           993                       # number of ReadCleanReq misses
system.l2.ReadCleanReq_misses::total              993                       # number of ReadCleanReq misses
system.l2.ReadSharedReq_misses::cpu.data       443422                       # number of ReadSharedReq misses
system.l2.ReadSharedReq_misses::total          443422                       # number of ReadSharedReq misses
system.l2.demand_misses::cpu.inst                 993                       # number of demand (read+write) misses
system.l2.demand_misses::cpu.data              762797                       # number of demand (read+write) misses
system.l2.demand_misses::total                 763790                       # number of demand (read+write) misses
system.l2.overall_misses::cpu.inst                993                       # number of overall misses
system.l2.overall_misses::cpu.data             762797                       # number of overall misses
system.l2.overall_misses::total                763790                       # number of overall misses
system.l2.ReadExReq_miss_latency::cpu.data  27139031000                       # number of ReadExReq miss cycles
system.l2.ReadExReq_miss_latency::total   27139031000                       # number of ReadExReq miss cycles
system.l2.ReadCleanReq_miss_latency::cpu.inst     75591000                       # number of ReadCleanReq miss cycles
system.l2.ReadCleanReq_miss_latency::total     75591000                       # number of ReadCleanReq miss cycles
system.l2.ReadSharedReq_miss_latency::cpu.data  36293152000                       # number of ReadSharedReq miss cycles
system.l2.ReadSharedReq_miss_latency::total  36293152000                       # number of ReadSharedReq miss cycles
system.l2.demand_miss_latency::cpu.inst      75591000                       # number of demand (read+write) miss cycles
system.l2.demand_miss_latency::cpu.data   63432183000                       # number of demand (read+write) miss cycles
system.l2.demand_miss_latency::total      63507774000                       # number of demand (read+write) miss cycles
system.l2.overall_miss_latency::cpu.inst     75591000                       # number of overall miss cycles
system.l2.overall_miss_latency::cpu.data  63432183000                       # number of overall miss cycles
system.l2.overall_miss_latency::total     63507774000                       # number of overall miss cycles
system.l2.WritebackDirty_accesses::writebacks      6275533                       # number of WritebackDirty accesses(hits+misses)
system.l2.WritebackDirty_accesses::total      6275533                       # number of WritebackDirty accesses(hits+misses)
system.l2.WritebackClean_accesses::writebacks           45                       # number of WritebackClean accesses(hits+misses)
system.l2.WritebackClean_accesses::total           45                       # number of WritebackClean accesses(hits+misses)
system.l2.ReadExReq_accesses::cpu.data        1863129                       # number of ReadExReq accesses(hits+misses)
system.l2.ReadExReq_accesses::total           1863129                       # number of ReadExReq accesses(hits+misses)
system.l2.ReadCleanReq_accesses::cpu.inst          994                       # number of ReadCleanReq accesses(hits+misses)
system.l2.ReadCleanReq_accesses::total            994                       # number of ReadCleanReq accesses(hits+misses)
system.l2.ReadSharedReq_accesses::cpu.data      9433056                       # number of ReadSharedReq accesses(hits+misses)
system.l2.ReadSharedReq_accesses::total       9433056                       # number of ReadSharedReq accesses(hits+misses)
system.l2.demand_accesses::cpu.inst               994                       # number of demand (read+write) accesses
system.l2.demand_accesses::cpu.data          11296185                       # number of demand (read+write) accesses
system.l2.demand_accesses::total             11297179                       # number of demand (read+write) accesses
system.l2.overall_accesses::cpu.inst              994                       # number of overall (read+write) accesses
system.l2.overall_accesses::cpu.data         11296185                       # number of overall (read+write) accesses
system.l2.overall_accesses::total            11297179                       # number of overall (read+write) accesses
system.l2.ReadExReq_miss_rate::cpu.data      0.171419                       # miss rate for ReadExReq accesses
system.l2.ReadExReq_miss_rate::total         0.171419                       # miss rate for ReadExReq accesses
system.l2.ReadCleanReq_miss_rate::cpu.inst     0.998994                       # miss rate for ReadCleanReq accesses
system.l2.ReadCleanReq_miss_rate::total      0.998994                       # miss rate for ReadCleanReq accesses
system.l2.ReadSharedReq_miss_rate::cpu.data     0.047007                       # miss rate for ReadSharedReq accesses
system.l2.ReadSharedReq_miss_rate::total     0.047007                       # miss rate for ReadSharedReq accesses
system.l2.demand_miss_rate::cpu.inst         0.998994                       # miss rate for demand accesses
system.l2.demand_miss_rate::cpu.data         0.067527                       # miss rate for demand accesses
system.l2.demand_miss_rate::total            0.067609                       # miss rate for demand accesses
system.l2.overall_miss_rate::cpu.inst        0.998994                       # miss rate for overall accesses
system.l2.overall_miss_rate::cpu.data        0.067527                       # miss rate for overall accesses
system.l2.overall_miss_rate::total           0.067609                       # miss rate for overall accesses
system.l2.ReadExReq_avg_miss_latency::cpu.data 84975.439530                       # average ReadExReq miss latency
system.l2.ReadExReq_avg_miss_latency::total 84975.439530                       # average ReadExReq miss latency
system.l2.ReadCleanReq_avg_miss_latency::cpu.inst 76123.867069                       # average ReadCleanReq miss latency
system.l2.ReadCleanReq_avg_miss_latency::total 76123.867069                       # average ReadCleanReq miss latency
system.l2.ReadSharedReq_avg_miss_latency::cpu.data 81847.883055                       # average ReadSharedReq miss latency
system.l2.ReadSharedReq_avg_miss_latency::total 81847.883055                       # average ReadSharedReq miss latency
system.l2.demand_avg_miss_latency::cpu.inst 76123.867069                       # average overall miss latency
system.l2.demand_avg_miss_latency::cpu.data 83157.357724                       # average overall miss latency
system.l2.demand_avg_miss_latency::total 83148.213514                       # average overall miss latency
system.l2.overall_avg_miss_latency::cpu.inst 76123.867069                       # average overall miss latency
system.l2.overall_avg_miss_latency::cpu.data 83157.357724                       # average overall miss latency
system.l2.overall_avg_miss_latency::total 83148.213514                       # average overall miss latency
system.l2.blocked_cycles::no_mshrs                  0                       # number of cycles access was blocked
system.l2.blocked_cycles::no_targets                0                       # number of cycles access was blocked
system.l2.blocked::no_mshrs                         0                       # number of cycles access was blocked
system.l2.blocked::no_targets                       0                       # number of cycles access was blocked
system.l2.avg_blocked_cycles::no_mshrs            nan                       # average number of cycles each access was blocked
system.l2.avg_blocked_cycles::no_targets          nan                       # average number of cycles each access was blocked
system.l2.fast_writes                               0                       # number of fast writes performed
system.l2.cache_copies                              0                       # number of cache copies performed
system.l2.writebacks::writebacks               407267                       # number of writebacks
system.l2.writebacks::total                    407267                       # number of writebacks
system.l2.CleanEvict_mshr_misses::writebacks         1548                       # number of CleanEvict MSHR misses
system.l2.CleanEvict_mshr_misses::total          1548                       # number of CleanEvict MSHR misses
system.l2.ReadExReq_mshr_misses::cpu.data       319375                       # number of ReadExReq MSHR misses
system.l2.ReadExReq_mshr_misses::total         319375                       # number of ReadExReq MSHR misses
system.l2.ReadCleanReq_mshr_misses::cpu.inst          993                       # number of ReadCleanReq MSHR misses
system.l2.ReadCleanReq_mshr_misses::total          993                       # number of ReadCleanReq MSHR misses
system.l2.ReadSharedReq_mshr_misses::cpu.data       443422                       # number of ReadSharedReq MSHR misses
system.l2.ReadSharedReq_mshr_misses::total       443422                       # number of ReadSharedReq MSHR misses
system.l2.demand_mshr_misses::cpu.inst            993                       # number of demand (read+write) MSHR misses
system.l2.demand_mshr_misses::cpu.data         762797                       # number of demand (read+write) MSHR misses
system.l2.demand_mshr_misses::total            763790                       # number of demand (read+write) MSHR misses
system.l2.overall_mshr_misses::cpu.inst           993                       # number of overall MSHR misses
system.l2.overall_mshr_misses::cpu.data        762797                       # number of overall MSHR misses
system.l2.overall_mshr_misses::total           763790                       # number of overall MSHR misses
system.l2.ReadExReq_mshr_miss_latency::cpu.data  23945281000                       # number of ReadExReq MSHR miss cycles
system.l2.ReadExReq_mshr_miss_latency::total  23945281000                       # number of ReadExReq MSHR miss cycles
system.l2.ReadCleanReq_mshr_miss_latency::cpu.inst     65661000                       # number of ReadCleanReq MSHR miss cycles
system.l2.ReadCleanReq_mshr_miss_latency::total     65661000                       # number of ReadCleanReq MSHR miss cycles
system.l2.ReadSharedReq_mshr_miss_latency::cpu.data  31858932000                       # number of ReadSharedReq MSHR miss cycles
system.l2.ReadSharedReq_mshr_miss_latency::total  31858932000                       # number of ReadSharedReq MSHR miss cycles
system.l2.demand_mshr_miss_latency::cpu.inst     65661000                       # number of demand (read+write) MSHR miss cycles
system.l2.demand_mshr_miss_latency::cpu.data  55804213000                       # number of demand (read+write) MSHR miss cycles
system.l2.demand_mshr_miss_latency::total  55869874000                       # number of demand (read+write) MSHR miss cycles
system.l2.overall_mshr_miss_latency::cpu.inst     65661000                       # number of overall MSHR miss cycles
system.l2.overall_mshr_miss_latency::cpu.data  55804213000                       # number of overall MSHR miss cycles
system.l2.overall_mshr_miss_latency::total  55869874000                       # number of overall MSHR miss cycles
system.l2.CleanEvict_mshr_miss_rate::writebacks          inf                       # mshr miss rate for CleanEvict accesses
system.l2.CleanEvict_mshr_miss_rate::total          inf                       # mshr miss rate for CleanEvict accesses
system.l2.ReadExReq_mshr_miss_rate::cpu.data     0.171419                       # mshr miss rate for ReadExReq accesses
system.l2.ReadExReq_mshr_miss_rate::total     0.171419                       # mshr miss rate for ReadExReq accesses
system.l2.ReadCleanReq_mshr_miss_rate::cpu.inst     0.998994                       # mshr miss rate for ReadCleanReq accesses
system.l2.ReadCleanReq_mshr_miss_rate::total     0.998994                       # mshr miss rate for ReadCleanReq accesses
system.l2.ReadSharedReq_mshr_miss_rate::cpu.data     0.047007                       # mshr miss rate for ReadSharedReq accesses
system.l2.ReadSharedReq_mshr_miss_rate::total     0.047007                       # mshr miss rate for ReadSharedReq accesses
system.l2.demand_mshr_miss_rate::cpu.inst     0.998994                       # mshr miss rate for demand accesses
system.l2.demand_mshr_miss_rate::cpu.data     0.067527                       # mshr miss rate for demand accesses
system.l2.demand_mshr_miss_rate::total       0.067609                       # mshr miss rate for demand accesses
system.l2.overall_mshr_miss_rate::cpu.inst     0.998994                       # mshr miss rate for overall accesses
system.l2.overall_mshr_miss_rate::cpu.data     0.067527                       # mshr miss rate for overall accesses
system.l2.overall_mshr_miss_rate::total      0.067609                       # mshr miss rate for overall accesses
system.l2.ReadExReq_avg_mshr_miss_latency::cpu.data 74975.439530                       # average ReadExReq mshr miss latency
system.l2.ReadExReq_avg_mshr_miss_latency::total 74975.439530                       # average ReadExReq mshr miss latency
system.l2.ReadCleanReq_avg_mshr_miss_latency::cpu.inst 66123.867069                       # average ReadCleanReq mshr miss latency
system.l2.ReadCleanReq_avg_mshr_miss_latency::total 66123.867069                       # average ReadCleanReq mshr miss latency
system.l2.ReadSharedReq_avg_mshr_miss_latency::cpu.data 71847.883055                       # average ReadSharedReq mshr miss latency
system.l2.ReadSharedReq_avg_mshr_miss_latency::total 71847.883055                       # average ReadSharedReq mshr miss latency
system.l2.demand_avg_mshr_miss_latency::cpu.inst 66123.867069                       # average overall mshr miss latency
system.l2.demand_avg_mshr_miss_latency::cpu.data 73157.357724                       # average overall mshr miss latency
system.l2.demand_avg_mshr_miss_latency::total 73148.213514                       # average overall mshr miss latency
system.l2.overall_avg_mshr_miss_latency::cpu.inst 66123.867069                       # average overall mshr miss latency
system.l2.overall_avg_mshr_miss_latency::cpu.data 73157.357724                       # average overall mshr miss latency
system.l2.overall_avg_mshr_miss_latency::total 73148.213514                       # average overall mshr miss latency
system.l2.no_allocate_misses                        0                       # Number of misses that were no-allocate
system.membus.trans_dist::ReadResp             444415                       # Transaction distribution
system.membus.trans_dist::WritebackDirty       407267                       # Transaction distribution
system.membus.trans_dist::CleanEvict           339231                       # Transaction distribution
system.membus.trans_dist::ReadExReq            319375                       # Transaction distribution
system.membus.trans_dist::ReadExResp           319375                       # Transaction distribution
system.membus.trans_dist::ReadSharedReq        444415                       # Transaction distribution
system.membus.pkt_count_system.l2.mem_side::system.mem_ctrls.port      2274078                       # Packet count per connected master and slave (bytes)
system.membus.pkt_count_system.l2.mem_side::total      2274078                       # Packet count per connected master and slave (bytes)
system.membus.pkt_count::total                2274078                       # Packet count per connected master and slave (bytes)
system.membus.pkt_size_system.l2.mem_side::system.mem_ctrls.port     74947648                       # Cumulative packet size per connected master and slave (bytes)
system.membus.pkt_size_system.l2.mem_side::total     74947648                       # Cumulative packet size per connected master and slave (bytes)
system.membus.pkt_size::total                74947648                       # Cumulative packet size per connected master and slave (bytes)
system.membus.snoops                                0                       # Total snoops (count)
system.membus.snoop_fanout::samples           1510288                       # Request fanout histogram
system.membus.snoop_fanout::mean                    0                       # Request fanout histogram
system.membus.snoop_fanout::stdev                   0                       # Request fanout histogram
system.membus.snoop_fanout::underflows              0      0.00%      0.00% # Request fanout histogram
system.membus.snoop_fanout::0                 1510288    100.00%    100.00% # Request fanout histogram
system.membus.snoop_fanout::1                       0      0.00%    100.00% # Request fanout histogram
system.membus.snoop_fanout::overflows               0      0.00%    100.00% # Request fanout histogram
system.membus.snoop_fanout::min_value               0                       # Request fanout histogram
system.membus.snoop_fanout::max_value               0                       # Request fanout histogram
system.membus.snoop_fanout::total             1510288                       # Request fanout histogram
system.membus.reqLayer2.occupancy          3147756500                       # Layer occupancy (ticks)
system.membus.reqLayer2.utilization               0.3                       # Layer utilization (%)
system.membus.respLayer1.occupancy         4131861000                       # Layer occupancy (ticks)
system.membus.respLayer1.utilization              0.4                       # Layer utilization (%)
system.tol2bus.snoop_filter.tot_requests     22593393                       # Total number of requests made to the snoop filter.
system.tol2bus.snoop_filter.hit_single_requests     11296214                       # Number of requests hitting in the snoop filter with a single holder of the requested data.
system.tol2bus.snoop_filter.hit_multi_requests            0                       # Number of requests hitting in the snoop filter with multiple (>1) holders of the requested data.
system.tol2bus.snoop_filter.tot_snoops           3853                       # Total number of snoops made to the snoop filter.
system.tol2bus.snoop_filter.hit_single_snoops         3853                       # Number of snoops hitting in the snoop filter with a single holder of the requested data.
system.tol2bus.snoop_filter.hit_multi_snoops            0                       # Number of snoops hitting in the snoop filter with multiple (>1) holders of the requested data.
system.tol2bus.trans_dist::ReadResp           9434050                       # Transaction distribution
system.tol2bus.trans_dist::WritebackDirty      6682800                       # Transaction distribution
system.tol2bus.trans_dist::WritebackClean           45                       # Transaction distribution
system.tol2bus.trans_dist::CleanEvict         5362172                       # Transaction distribution
system.tol2bus.trans_dist::ReadExReq          1863129                       # Transaction distribution
system.tol2bus.trans_dist::ReadExResp         1863129                       # Transaction distribution
system.tol2bus.trans_dist::ReadCleanReq           994                       # Transaction distribution
system.tol2bus.trans_dist::ReadSharedReq      9433056                       # Transaction distribution
system.tol2bus.pkt_count_system.cpu.icache.mem_side::system.l2.cpu_side         2033                       # Packet count per connected master and slave (bytes)
system.tol2bus.pkt_count_system.cpu.dcache.mem_side::system.l2.cpu_side     33888539                       # Packet count per connected master and slave (bytes)
system.tol2bus.pkt_count::total              33890572                       # Packet count per connected master and slave (bytes)
system.tol2bus.pkt_size_system.cpu.icache.mem_side::system.l2.cpu_side        66496                       # Cumulative packet size per connected master and slave (bytes)
system.tol2bus.pkt_size_system.cpu.dcache.mem_side::system.l2.cpu_side   1124589952                       # Cumulative packet size per connected master and slave (bytes)
system.tol2bus.pkt_size::total             1124656448                       # Cumulative packet size per connected master and slave (bytes)
system.tol2bus.snoops                          748803                       # Total snoops (count)
system.tol2bus.snoop_fanout::samples         12045982                       # Request fanout histogram
system.tol2bus.snoop_fanout::mean            0.000320                       # Request fanout histogram
system.tol2bus.snoop_fanout::stdev           0.017882                       # Request fanout histogram
system.tol2bus.snoop_fanout::underflows             0      0.00%      0.00% # Request fanout histogram
system.tol2bus.snoop_fanout::0               12042129     99.97%     99.97% # Request fanout histogram
system.tol2bus.snoop_fanout::1                   3853      0.03%    100.00% # Request fanout histogram
system.tol2bus.snoop_fanout::2                      0      0.00%    100.00% # Request fanout histogram
system.tol2bus.snoop_fanout::3                      0      0.00%    100.00% # Request fanout histogram
system.tol2bus.snoop_fanout::4                      0      0.00%    100.00% # Request fanout histogram
system.tol2bus.snoop_fanout::overflows              0      0.00%    100.00% # Request fanout histogram
system.tol2bus.snoop_fanout::min_value              0                       # Request fanout histogram
system.tol2bus.snoop_fanout::max_value              1                       # Request fanout histogram
system.tol2bus.snoop_fanout::total           12045982                       # Request fanout histogram
system.tol2bus.reqLayer0.occupancy        17572274500                       # Layer occupancy (ticks)
system.tol2bus.reqLayer0.utilization              1.5                       # Layer utilization (%)
system.tol2bus.respLayer0.occupancy           1491000                       # Layer occupancy (ticks)
system.tol2bus.respLayer0.utilization             0.0                       # Layer utilization (%)
system.tol2bus.respLayer1.occupancy       16944277500                       # Layer occupancy (ticks)
system.tol2bus.respLayer1.utilization             1.4                       # Layer utilization (%)

---------- End Simulation Statistics   ----------
