
---------- Begin Simulation Statistics ----------
sim_seconds                                  1.203898                       # Number of seconds simulated
sim_ticks                                1203897644500                       # Number of ticks simulated
final_tick                               1203897644500                       # Number of ticks from beginning of simulation (restored from checkpoints and never reset)
sim_freq                                 1000000000000                       # Frequency of simulated ticks
host_inst_rate                                 135446                       # Simulator instruction rate (inst/s)
host_op_rate                                   197873                       # Simulator op (including micro ops) rate (op/s)
host_tick_rate                              326126723                       # Simulator tick rate (ticks/s)
host_mem_usage                                 828416                       # Number of bytes of host memory used
host_seconds                                  3691.50                       # Real time elapsed on the host
sim_insts                                   500000000                       # Number of instructions simulated
sim_ops                                     730450481                       # Number of ops (including micro ops) simulated
system.voltage_domain.voltage                       1                       # Voltage in Volts
system.clk_domain.clock                          1000                       # Clock period in ticks
system.mem_ctrls.bytes_read::cpu.inst          711296                       # Number of bytes read from this memory
system.mem_ctrls.bytes_read::cpu.data        48337920                       # Number of bytes read from this memory
system.mem_ctrls.bytes_read::total           49049216                       # Number of bytes read from this memory
system.mem_ctrls.bytes_inst_read::cpu.inst       711296                       # Number of instructions bytes read from this memory
system.mem_ctrls.bytes_inst_read::total        711296                       # Number of instructions bytes read from this memory
system.mem_ctrls.bytes_written::writebacks     24948544                       # Number of bytes written to this memory
system.mem_ctrls.bytes_written::total        24948544                       # Number of bytes written to this memory
system.mem_ctrls.num_reads::cpu.inst            11114                       # Number of read requests responded to by this memory
system.mem_ctrls.num_reads::cpu.data           755280                       # Number of read requests responded to by this memory
system.mem_ctrls.num_reads::total              766394                       # Number of read requests responded to by this memory
system.mem_ctrls.num_writes::writebacks        389821                       # Number of write requests responded to by this memory
system.mem_ctrls.num_writes::total             389821                       # Number of write requests responded to by this memory
system.mem_ctrls.bw_read::cpu.inst             590828                       # Total read bandwidth from this memory (bytes/s)
system.mem_ctrls.bw_read::cpu.data           40151187                       # Total read bandwidth from this memory (bytes/s)
system.mem_ctrls.bw_read::total              40742015                       # Total read bandwidth from this memory (bytes/s)
system.mem_ctrls.bw_inst_read::cpu.inst        590828                       # Instruction read bandwidth from this memory (bytes/s)
system.mem_ctrls.bw_inst_read::total           590828                       # Instruction read bandwidth from this memory (bytes/s)
system.mem_ctrls.bw_write::writebacks        20723144                       # Write bandwidth from this memory (bytes/s)
system.mem_ctrls.bw_write::total             20723144                       # Write bandwidth from this memory (bytes/s)
system.mem_ctrls.bw_total::writebacks        20723144                       # Total bandwidth to/from this memory (bytes/s)
system.mem_ctrls.bw_total::cpu.inst            590828                       # Total bandwidth to/from this memory (bytes/s)
system.mem_ctrls.bw_total::cpu.data          40151187                       # Total bandwidth to/from this memory (bytes/s)
system.mem_ctrls.bw_total::total             61465159                       # Total bandwidth to/from this memory (bytes/s)
system.mem_ctrls.readReqs                      766394                       # Number of read requests accepted
system.mem_ctrls.writeReqs                     389821                       # Number of write requests accepted
system.mem_ctrls.readBursts                    766394                       # Number of DRAM read bursts, including those serviced by the write queue
system.mem_ctrls.writeBursts                   389821                       # Number of DRAM write bursts, including those merged in the write queue
system.mem_ctrls.bytesReadDRAM               48948160                       # Total number of bytes read from DRAM
system.mem_ctrls.bytesReadWrQ                  101056                       # Total number of bytes read from write queue
system.mem_ctrls.bytesWritten                24944192                       # Total number of bytes written to DRAM
system.mem_ctrls.bytesReadSys                49049216                       # Total read bytes from the system interface side
system.mem_ctrls.bytesWrittenSys             24948544                       # Total written bytes from the system interface side
system.mem_ctrls.servicedByWrQ                   1579                       # Number of DRAM read bursts serviced by the write queue
system.mem_ctrls.mergedWrBursts                    42                       # Number of DRAM write bursts merged with an existing one
system.mem_ctrls.neitherReadNorWriteReqs       360187                       # Number of requests that are neither read nor write
system.mem_ctrls.perBankRdBursts::0             49057                       # Per bank write bursts
system.mem_ctrls.perBankRdBursts::1             50318                       # Per bank write bursts
system.mem_ctrls.perBankRdBursts::2             57792                       # Per bank write bursts
system.mem_ctrls.perBankRdBursts::3             45373                       # Per bank write bursts
system.mem_ctrls.perBankRdBursts::4             44503                       # Per bank write bursts
system.mem_ctrls.perBankRdBursts::5             44231                       # Per bank write bursts
system.mem_ctrls.perBankRdBursts::6             46741                       # Per bank write bursts
system.mem_ctrls.perBankRdBursts::7             45875                       # Per bank write bursts
system.mem_ctrls.perBankRdBursts::8             43027                       # Per bank write bursts
system.mem_ctrls.perBankRdBursts::9             43392                       # Per bank write bursts
system.mem_ctrls.perBankRdBursts::10            47195                       # Per bank write bursts
system.mem_ctrls.perBankRdBursts::11            47742                       # Per bank write bursts
system.mem_ctrls.perBankRdBursts::12            49412                       # Per bank write bursts
system.mem_ctrls.perBankRdBursts::13            49379                       # Per bank write bursts
system.mem_ctrls.perBankRdBursts::14            49768                       # Per bank write bursts
system.mem_ctrls.perBankRdBursts::15            51010                       # Per bank write bursts
system.mem_ctrls.perBankWrBursts::0             25143                       # Per bank write bursts
system.mem_ctrls.perBankWrBursts::1             24870                       # Per bank write bursts
system.mem_ctrls.perBankWrBursts::2             26590                       # Per bank write bursts
system.mem_ctrls.perBankWrBursts::3             23771                       # Per bank write bursts
system.mem_ctrls.perBankWrBursts::4             23142                       # Per bank write bursts
system.mem_ctrls.perBankWrBursts::5             22679                       # Per bank write bursts
system.mem_ctrls.perBankWrBursts::6             23926                       # Per bank write bursts
system.mem_ctrls.perBankWrBursts::7             23849                       # Per bank write bursts
system.mem_ctrls.perBankWrBursts::8             22880                       # Per bank write bursts
system.mem_ctrls.perBankWrBursts::9             22997                       # Per bank write bursts
system.mem_ctrls.perBankWrBursts::10            24361                       # Per bank write bursts
system.mem_ctrls.perBankWrBursts::11            24132                       # Per bank write bursts
system.mem_ctrls.perBankWrBursts::12            24701                       # Per bank write bursts
system.mem_ctrls.perBankWrBursts::13            25019                       # Per bank write bursts
system.mem_ctrls.perBankWrBursts::14            25284                       # Per bank write bursts
system.mem_ctrls.perBankWrBursts::15            26409                       # Per bank write bursts
system.mem_ctrls.numRdRetry                         0                       # Number of times read queue was full causing retry
system.mem_ctrls.numWrRetry                         0                       # Number of times write queue was full causing retry
system.mem_ctrls.totGap                  1203865050500                       # Total gap between requests
system.mem_ctrls.readPktSize::0                     0                       # Read request sizes (log2)
system.mem_ctrls.readPktSize::1                     0                       # Read request sizes (log2)
system.mem_ctrls.readPktSize::2                     0                       # Read request sizes (log2)
system.mem_ctrls.readPktSize::3                     0                       # Read request sizes (log2)
system.mem_ctrls.readPktSize::4                     0                       # Read request sizes (log2)
system.mem_ctrls.readPktSize::5                     0                       # Read request sizes (log2)
system.mem_ctrls.readPktSize::6                766394                       # Read request sizes (log2)
system.mem_ctrls.writePktSize::0                    0                       # Write request sizes (log2)
system.mem_ctrls.writePktSize::1                    0                       # Write request sizes (log2)
system.mem_ctrls.writePktSize::2                    0                       # Write request sizes (log2)
system.mem_ctrls.writePktSize::3                    0                       # Write request sizes (log2)
system.mem_ctrls.writePktSize::4                    0                       # Write request sizes (log2)
system.mem_ctrls.writePktSize::5                    0                       # Write request sizes (log2)
system.mem_ctrls.writePktSize::6               389821                       # Write request sizes (log2)
system.mem_ctrls.rdQLenPdf::0                  756327                       # What read queue length does an incoming req see
system.mem_ctrls.rdQLenPdf::1                    8074                       # What read queue length does an incoming req see
system.mem_ctrls.rdQLenPdf::2                     301                       # What read queue length does an incoming req see
system.mem_ctrls.rdQLenPdf::3                     113                       # What read queue length does an incoming req see
system.mem_ctrls.rdQLenPdf::4                       0                       # What read queue length does an incoming req see
system.mem_ctrls.rdQLenPdf::5                       0                       # What read queue length does an incoming req see
system.mem_ctrls.rdQLenPdf::6                       0                       # What read queue length does an incoming req see
system.mem_ctrls.rdQLenPdf::7                       0                       # What read queue length does an incoming req see
system.mem_ctrls.rdQLenPdf::8                       0                       # What read queue length does an incoming req see
system.mem_ctrls.rdQLenPdf::9                       0                       # What read queue length does an incoming req see
system.mem_ctrls.rdQLenPdf::10                      0                       # What read queue length does an incoming req see
system.mem_ctrls.rdQLenPdf::11                      0                       # What read queue length does an incoming req see
system.mem_ctrls.rdQLenPdf::12                      0                       # What read queue length does an incoming req see
system.mem_ctrls.rdQLenPdf::13                      0                       # What read queue length does an incoming req see
system.mem_ctrls.rdQLenPdf::14                      0                       # What read queue length does an incoming req see
system.mem_ctrls.rdQLenPdf::15                      0                       # What read queue length does an incoming req see
system.mem_ctrls.rdQLenPdf::16                      0                       # What read queue length does an incoming req see
system.mem_ctrls.rdQLenPdf::17                      0                       # What read queue length does an incoming req see
system.mem_ctrls.rdQLenPdf::18                      0                       # What read queue length does an incoming req see
system.mem_ctrls.rdQLenPdf::19                      0                       # What read queue length does an incoming req see
system.mem_ctrls.rdQLenPdf::20                      0                       # What read queue length does an incoming req see
system.mem_ctrls.rdQLenPdf::21                      0                       # What read queue length does an incoming req see
system.mem_ctrls.rdQLenPdf::22                      0                       # What read queue length does an incoming req see
system.mem_ctrls.rdQLenPdf::23                      0                       # What read queue length does an incoming req see
system.mem_ctrls.rdQLenPdf::24                      0                       # What read queue length does an incoming req see
system.mem_ctrls.rdQLenPdf::25                      0                       # What read queue length does an incoming req see
system.mem_ctrls.rdQLenPdf::26                      0                       # What read queue length does an incoming req see
system.mem_ctrls.rdQLenPdf::27                      0                       # What read queue length does an incoming req see
system.mem_ctrls.rdQLenPdf::28                      0                       # What read queue length does an incoming req see
system.mem_ctrls.rdQLenPdf::29                      0                       # What read queue length does an incoming req see
system.mem_ctrls.rdQLenPdf::30                      0                       # What read queue length does an incoming req see
system.mem_ctrls.rdQLenPdf::31                      0                       # What read queue length does an incoming req see
system.mem_ctrls.wrQLenPdf::0                       1                       # What write queue length does an incoming req see
system.mem_ctrls.wrQLenPdf::1                       1                       # What write queue length does an incoming req see
system.mem_ctrls.wrQLenPdf::2                       1                       # What write queue length does an incoming req see
system.mem_ctrls.wrQLenPdf::3                       1                       # What write queue length does an incoming req see
system.mem_ctrls.wrQLenPdf::4                       1                       # What write queue length does an incoming req see
system.mem_ctrls.wrQLenPdf::5                       1                       # What write queue length does an incoming req see
system.mem_ctrls.wrQLenPdf::6                       1                       # What write queue length does an incoming req see
system.mem_ctrls.wrQLenPdf::7                       1                       # What write queue length does an incoming req see
system.mem_ctrls.wrQLenPdf::8                       1                       # What write queue length does an incoming req see
system.mem_ctrls.wrQLenPdf::9                       1                       # What write queue length does an incoming req see
system.mem_ctrls.wrQLenPdf::10                      1                       # What write queue length does an incoming req see
system.mem_ctrls.wrQLenPdf::11                      1                       # What write queue length does an incoming req see
system.mem_ctrls.wrQLenPdf::12                      1                       # What write queue length does an incoming req see
system.mem_ctrls.wrQLenPdf::13                      1                       # What write queue length does an incoming req see
system.mem_ctrls.wrQLenPdf::14                      1                       # What write queue length does an incoming req see
system.mem_ctrls.wrQLenPdf::15                  14953                       # What write queue length does an incoming req see
system.mem_ctrls.wrQLenPdf::16                  15732                       # What write queue length does an incoming req see
system.mem_ctrls.wrQLenPdf::17                  22409                       # What write queue length does an incoming req see
system.mem_ctrls.wrQLenPdf::18                  22457                       # What write queue length does an incoming req see
system.mem_ctrls.wrQLenPdf::19                  22436                       # What write queue length does an incoming req see
system.mem_ctrls.wrQLenPdf::20                  22429                       # What write queue length does an incoming req see
system.mem_ctrls.wrQLenPdf::21                  22428                       # What write queue length does an incoming req see
system.mem_ctrls.wrQLenPdf::22                  22422                       # What write queue length does an incoming req see
system.mem_ctrls.wrQLenPdf::23                  22423                       # What write queue length does an incoming req see
system.mem_ctrls.wrQLenPdf::24                  22420                       # What write queue length does an incoming req see
system.mem_ctrls.wrQLenPdf::25                  22433                       # What write queue length does an incoming req see
system.mem_ctrls.wrQLenPdf::26                  22443                       # What write queue length does an incoming req see
system.mem_ctrls.wrQLenPdf::27                  22527                       # What write queue length does an incoming req see
system.mem_ctrls.wrQLenPdf::28                  22560                       # What write queue length does an incoming req see
system.mem_ctrls.wrQLenPdf::29                  22428                       # What write queue length does an incoming req see
system.mem_ctrls.wrQLenPdf::30                  22423                       # What write queue length does an incoming req see
system.mem_ctrls.wrQLenPdf::31                  22417                       # What write queue length does an incoming req see
system.mem_ctrls.wrQLenPdf::32                  22417                       # What write queue length does an incoming req see
system.mem_ctrls.wrQLenPdf::33                      7                       # What write queue length does an incoming req see
system.mem_ctrls.wrQLenPdf::34                      0                       # What write queue length does an incoming req see
system.mem_ctrls.wrQLenPdf::35                      0                       # What write queue length does an incoming req see
system.mem_ctrls.wrQLenPdf::36                      0                       # What write queue length does an incoming req see
system.mem_ctrls.wrQLenPdf::37                      0                       # What write queue length does an incoming req see
system.mem_ctrls.wrQLenPdf::38                      0                       # What write queue length does an incoming req see
system.mem_ctrls.wrQLenPdf::39                      0                       # What write queue length does an incoming req see
system.mem_ctrls.wrQLenPdf::40                      0                       # What write queue length does an incoming req see
system.mem_ctrls.wrQLenPdf::41                      0                       # What write queue length does an incoming req see
system.mem_ctrls.wrQLenPdf::42                      0                       # What write queue length does an incoming req see
system.mem_ctrls.wrQLenPdf::43                      0                       # What write queue length does an incoming req see
system.mem_ctrls.wrQLenPdf::44                      0                       # What write queue length does an incoming req see
system.mem_ctrls.wrQLenPdf::45                      0                       # What write queue length does an incoming req see
system.mem_ctrls.wrQLenPdf::46                      0                       # What write queue length does an incoming req see
system.mem_ctrls.wrQLenPdf::47                      0                       # What write queue length does an incoming req see
system.mem_ctrls.wrQLenPdf::48                      0                       # What write queue length does an incoming req see
system.mem_ctrls.wrQLenPdf::49                      0                       # What write queue length does an incoming req see
system.mem_ctrls.wrQLenPdf::50                      0                       # What write queue length does an incoming req see
system.mem_ctrls.wrQLenPdf::51                      0                       # What write queue length does an incoming req see
system.mem_ctrls.wrQLenPdf::52                      0                       # What write queue length does an incoming req see
system.mem_ctrls.wrQLenPdf::53                      0                       # What write queue length does an incoming req see
system.mem_ctrls.wrQLenPdf::54                      0                       # What write queue length does an incoming req see
system.mem_ctrls.wrQLenPdf::55                      0                       # What write queue length does an incoming req see
system.mem_ctrls.wrQLenPdf::56                      0                       # What write queue length does an incoming req see
system.mem_ctrls.wrQLenPdf::57                      0                       # What write queue length does an incoming req see
system.mem_ctrls.wrQLenPdf::58                      0                       # What write queue length does an incoming req see
system.mem_ctrls.wrQLenPdf::59                      0                       # What write queue length does an incoming req see
system.mem_ctrls.wrQLenPdf::60                      0                       # What write queue length does an incoming req see
system.mem_ctrls.wrQLenPdf::61                      0                       # What write queue length does an incoming req see
system.mem_ctrls.wrQLenPdf::62                      0                       # What write queue length does an incoming req see
system.mem_ctrls.wrQLenPdf::63                      0                       # What write queue length does an incoming req see
system.mem_ctrls.bytesPerActivate::samples       588893                       # Bytes accessed per row activation
system.mem_ctrls.bytesPerActivate::mean    125.476703                       # Bytes accessed per row activation
system.mem_ctrls.bytesPerActivate::gmean    92.088935                       # Bytes accessed per row activation
system.mem_ctrls.bytesPerActivate::stdev   154.995405                       # Bytes accessed per row activation
system.mem_ctrls.bytesPerActivate::0-127       408028     69.29%     69.29% # Bytes accessed per row activation
system.mem_ctrls.bytesPerActivate::128-255       117958     20.03%     89.32% # Bytes accessed per row activation
system.mem_ctrls.bytesPerActivate::256-383        26294      4.46%     93.78% # Bytes accessed per row activation
system.mem_ctrls.bytesPerActivate::384-511        10152      1.72%     95.51% # Bytes accessed per row activation
system.mem_ctrls.bytesPerActivate::512-639        12911      2.19%     97.70% # Bytes accessed per row activation
system.mem_ctrls.bytesPerActivate::640-767         2219      0.38%     98.08% # Bytes accessed per row activation
system.mem_ctrls.bytesPerActivate::768-895         1684      0.29%     98.36% # Bytes accessed per row activation
system.mem_ctrls.bytesPerActivate::896-1023         1375      0.23%     98.60% # Bytes accessed per row activation
system.mem_ctrls.bytesPerActivate::1024-1151         8272      1.40%    100.00% # Bytes accessed per row activation
system.mem_ctrls.bytesPerActivate::total       588893                       # Bytes accessed per row activation
system.mem_ctrls.rdPerTurnAround::samples        22417                       # Reads before turning the bus around for writes
system.mem_ctrls.rdPerTurnAround::mean      34.116340                       # Reads before turning the bus around for writes
system.mem_ctrls.rdPerTurnAround::gmean     26.019434                       # Reads before turning the bus around for writes
system.mem_ctrls.rdPerTurnAround::stdev    172.475565                       # Reads before turning the bus around for writes
system.mem_ctrls.rdPerTurnAround::0-1023        22410     99.97%     99.97% # Reads before turning the bus around for writes
system.mem_ctrls.rdPerTurnAround::1024-2047            2      0.01%     99.98% # Reads before turning the bus around for writes
system.mem_ctrls.rdPerTurnAround::5120-6143            2      0.01%     99.99% # Reads before turning the bus around for writes
system.mem_ctrls.rdPerTurnAround::8192-9215            2      0.01%    100.00% # Reads before turning the bus around for writes
system.mem_ctrls.rdPerTurnAround::20480-21503            1      0.00%    100.00% # Reads before turning the bus around for writes
system.mem_ctrls.rdPerTurnAround::total         22417                       # Reads before turning the bus around for writes
system.mem_ctrls.wrPerTurnAround::samples        22417                       # Writes before turning the bus around for reads
system.mem_ctrls.wrPerTurnAround::mean      17.386492                       # Writes before turning the bus around for reads
system.mem_ctrls.wrPerTurnAround::gmean     17.360824                       # Writes before turning the bus around for reads
system.mem_ctrls.wrPerTurnAround::stdev      0.932248                       # Writes before turning the bus around for reads
system.mem_ctrls.wrPerTurnAround::16             6685     29.82%     29.82% # Writes before turning the bus around for reads
system.mem_ctrls.wrPerTurnAround::17              774      3.45%     33.27% # Writes before turning the bus around for reads
system.mem_ctrls.wrPerTurnAround::18            14574     65.01%     98.29% # Writes before turning the bus around for reads
system.mem_ctrls.wrPerTurnAround::19              377      1.68%     99.97% # Writes before turning the bus around for reads
system.mem_ctrls.wrPerTurnAround::20                7      0.03%    100.00% # Writes before turning the bus around for reads
system.mem_ctrls.wrPerTurnAround::total         22417                       # Writes before turning the bus around for reads
system.mem_ctrls.totQLat                  11208929500                       # Total ticks spent queuing
system.mem_ctrls.totMemAccLat             25549210750                       # Total ticks spent from burst creation until serviced by the DRAM
system.mem_ctrls.totBusLat                 3824075000                       # Total ticks spent in databus transfers
system.mem_ctrls.avgQLat                     14655.74                       # Average queueing delay per DRAM burst
system.mem_ctrls.avgBusLat                    5000.00                       # Average bus latency per DRAM burst
system.mem_ctrls.avgMemAccLat                33405.74                       # Average memory access latency per DRAM burst
system.mem_ctrls.avgRdBW                        40.66                       # Average DRAM read bandwidth in MiByte/s
system.mem_ctrls.avgWrBW                        20.72                       # Average achieved write bandwidth in MiByte/s
system.mem_ctrls.avgRdBWSys                     40.74                       # Average system read bandwidth in MiByte/s
system.mem_ctrls.avgWrBWSys                     20.72                       # Average system write bandwidth in MiByte/s
system.mem_ctrls.peakBW                      12800.00                       # Theoretical peak bandwidth in MiByte/s
system.mem_ctrls.busUtil                         0.48                       # Data bus utilization in percentage
system.mem_ctrls.busUtilRead                     0.32                       # Data bus utilization in percentage for reads
system.mem_ctrls.busUtilWrite                    0.16                       # Data bus utilization in percentage for writes
system.mem_ctrls.avgRdQLen                       1.00                       # Average read queue length when enqueuing
system.mem_ctrls.avgWrQLen                      25.31                       # Average write queue length when enqueuing
system.mem_ctrls.readRowHits                   361398                       # Number of row buffer hits during reads
system.mem_ctrls.writeRowHits                  204277                       # Number of row buffer hits during writes
system.mem_ctrls.readRowHitRate                 47.25                       # Row buffer hit rate for reads
system.mem_ctrls.writeRowHitRate                52.41                       # Row buffer hit rate for writes
system.mem_ctrls.avgGap                    1041212.10                       # Average gap between requests
system.mem_ctrls.pageHitRate                    48.99                       # Row buffer hit rate, read and write combined
system.mem_ctrls_0.actEnergy               2217589920                       # Energy for activate commands per rank (pJ)
system.mem_ctrls_0.preEnergy               1209994500                       # Energy for precharge commands per rank (pJ)
system.mem_ctrls_0.readEnergy              2994342000                       # Energy for read commands per rank (pJ)
system.mem_ctrls_0.writeEnergy             1256925600                       # Energy for write commands per rank (pJ)
system.mem_ctrls_0.refreshEnergy          78632530080                       # Energy for refresh commands per rank (pJ)
system.mem_ctrls_0.actBackEnergy         239902446735                       # Energy for active background per rank (pJ)
system.mem_ctrls_0.preBackEnergy         511896046500                       # Energy for precharge background per rank (pJ)
system.mem_ctrls_0.totalEnergy           838109875335                       # Total energy per rank (pJ)
system.mem_ctrls_0.averagePower            696.165463                       # Core power per rank (mW)
system.mem_ctrls_0.memoryStateTime::IDLE 850134248500                       # Time in different power states
system.mem_ctrls_0.memoryStateTime::REF   40200680000                       # Time in different power states
system.mem_ctrls_0.memoryStateTime::PRE_PDN            0                       # Time in different power states
system.mem_ctrls_0.memoryStateTime::ACT  313559734000                       # Time in different power states
system.mem_ctrls_0.memoryStateTime::ACT_PDN            0                       # Time in different power states
system.mem_ctrls_1.actEnergy               2234441160                       # Energy for activate commands per rank (pJ)
system.mem_ctrls_1.preEnergy               1219189125                       # Energy for precharge commands per rank (pJ)
system.mem_ctrls_1.readEnergy              2971215000                       # Energy for read commands per rank (pJ)
system.mem_ctrls_1.writeEnergy             1268673840                       # Energy for write commands per rank (pJ)
system.mem_ctrls_1.refreshEnergy          78632530080                       # Energy for refresh commands per rank (pJ)
system.mem_ctrls_1.actBackEnergy         236010068640                       # Energy for active background per rank (pJ)
system.mem_ctrls_1.preBackEnergy         515310413250                       # Energy for precharge background per rank (pJ)
system.mem_ctrls_1.totalEnergy           837646531095                       # Total energy per rank (pJ)
system.mem_ctrls_1.averagePower            695.780592                       # Core power per rank (mW)
system.mem_ctrls_1.memoryStateTime::IDLE 855841739500                       # Time in different power states
system.mem_ctrls_1.memoryStateTime::REF   40200680000                       # Time in different power states
system.mem_ctrls_1.memoryStateTime::PRE_PDN            0                       # Time in different power states
system.mem_ctrls_1.memoryStateTime::ACT  307852243000                       # Time in different power states
system.mem_ctrls_1.memoryStateTime::ACT_PDN            0                       # Time in different power states
system.cpu_voltage_domain.voltage                   1                       # Voltage in Volts
system.cpu_clk_domain.clock                       500                       # Clock period in ticks
system.cpu.apic_clk_domain.clock                 8000                       # Clock period in ticks
system.cpu.workload.num_syscalls                   86                       # Number of system calls
system.cpu.numCycles                       2407795289                       # number of cpu cycles simulated
system.cpu.numWorkItemsStarted                      0                       # number of work items this cpu started
system.cpu.numWorkItemsCompleted                    0                       # number of work items this cpu completed
system.cpu.committedInsts                   500000000                       # Number of instructions committed
system.cpu.committedOps                     730450481                       # Number of ops (including micro ops) committed
system.cpu.num_int_alu_accesses             729688887                       # Number of integer alu accesses
system.cpu.num_fp_alu_accesses                    761                       # Number of float alu accesses
system.cpu.num_func_calls                     1453959                       # number of times a function call or return occured
system.cpu.num_conditional_control_insts     31770494                       # number of instructions that are conditional controls
system.cpu.num_int_insts                    729688887                       # number of integer instructions
system.cpu.num_fp_insts                           761                       # number of float instructions
system.cpu.num_int_register_reads          1698743312                       # number of times the integer registers were read
system.cpu.num_int_register_writes          621892930                       # number of times the integer registers were written
system.cpu.num_fp_register_reads                 1183                       # number of times the floating registers were read
system.cpu.num_fp_register_writes                 497                       # number of times the floating registers were written
system.cpu.num_cc_register_reads            180840590                       # number of times the CC registers were read
system.cpu.num_cc_register_writes           276245123                       # number of times the CC registers were written
system.cpu.num_mem_refs                     295985437                       # number of memory refs
system.cpu.num_load_insts                   225946734                       # Number of load instructions
system.cpu.num_store_insts                   70038703                       # Number of store instructions
system.cpu.num_idle_cycles                          0                       # Number of idle cycles
system.cpu.num_busy_cycles                 2407795289                       # Number of busy cycles
system.cpu.not_idle_fraction                        1                       # Percentage of non-idle cycles
system.cpu.idle_fraction                            0                       # Percentage of idle cycles
system.cpu.Branches                          37843290                       # Number of branches fetched
system.cpu.op_class::No_OpClass                 94739      0.01%      0.01% # Class of executed instruction
system.cpu.op_class::IntAlu                 434349056     59.46%     59.48% # Class of executed instruction
system.cpu.op_class::IntMult                    20662      0.00%     59.48% # Class of executed instruction
system.cpu.op_class::IntDiv                       119      0.00%     59.48% # Class of executed instruction
system.cpu.op_class::FloatAdd                     468      0.00%     59.48% # Class of executed instruction
system.cpu.op_class::FloatCmp                       0      0.00%     59.48% # Class of executed instruction
system.cpu.op_class::FloatCvt                       0      0.00%     59.48% # Class of executed instruction
system.cpu.op_class::FloatMult                      0      0.00%     59.48% # Class of executed instruction
system.cpu.op_class::FloatDiv                       0      0.00%     59.48% # Class of executed instruction
system.cpu.op_class::FloatSqrt                      0      0.00%     59.48% # Class of executed instruction
system.cpu.op_class::SimdAdd                        0      0.00%     59.48% # Class of executed instruction
system.cpu.op_class::SimdAddAcc                     0      0.00%     59.48% # Class of executed instruction
system.cpu.op_class::SimdAlu                        0      0.00%     59.48% # Class of executed instruction
system.cpu.op_class::SimdCmp                        0      0.00%     59.48% # Class of executed instruction
system.cpu.op_class::SimdCvt                        0      0.00%     59.48% # Class of executed instruction
system.cpu.op_class::SimdMisc                       0      0.00%     59.48% # Class of executed instruction
system.cpu.op_class::SimdMult                       0      0.00%     59.48% # Class of executed instruction
system.cpu.op_class::SimdMultAcc                    0      0.00%     59.48% # Class of executed instruction
system.cpu.op_class::SimdShift                      0      0.00%     59.48% # Class of executed instruction
system.cpu.op_class::SimdShiftAcc                   0      0.00%     59.48% # Class of executed instruction
system.cpu.op_class::SimdSqrt                       0      0.00%     59.48% # Class of executed instruction
system.cpu.op_class::SimdFloatAdd                   0      0.00%     59.48% # Class of executed instruction
system.cpu.op_class::SimdFloatAlu                   0      0.00%     59.48% # Class of executed instruction
system.cpu.op_class::SimdFloatCmp                   0      0.00%     59.48% # Class of executed instruction
system.cpu.op_class::SimdFloatCvt                   0      0.00%     59.48% # Class of executed instruction
system.cpu.op_class::SimdFloatDiv                   0      0.00%     59.48% # Class of executed instruction
system.cpu.op_class::SimdFloatMisc                  0      0.00%     59.48% # Class of executed instruction
system.cpu.op_class::SimdFloatMult                  0      0.00%     59.48% # Class of executed instruction
system.cpu.op_class::SimdFloatMultAcc               0      0.00%     59.48% # Class of executed instruction
system.cpu.op_class::SimdFloatSqrt                  0      0.00%     59.48% # Class of executed instruction
system.cpu.op_class::MemRead                225946734     30.93%     90.41% # Class of executed instruction
system.cpu.op_class::MemWrite                70038703      9.59%    100.00% # Class of executed instruction
system.cpu.op_class::IprAccess                      0      0.00%    100.00% # Class of executed instruction
system.cpu.op_class::InstPrefetch                   0      0.00%    100.00% # Class of executed instruction
system.cpu.op_class::total                  730450481                       # Class of executed instruction
system.cpu.dcache.tags.replacements           2042531                       # number of replacements
system.cpu.dcache.tags.tagsinuse          2042.886536                       # Cycle average of tags in use
system.cpu.dcache.tags.total_refs           293940866                       # Total number of references to valid blocks.
system.cpu.dcache.tags.sampled_refs           2044579                       # Sample count of references to valid blocks.
system.cpu.dcache.tags.avg_refs            143.765962                       # Average number of references to valid blocks.
system.cpu.dcache.tags.warmup_cycle        3528754500                       # Cycle when the warmup percentage was hit.
system.cpu.dcache.tags.occ_blocks::cpu.data  2042.886536                       # Average occupied blocks per requestor
system.cpu.dcache.tags.occ_percent::cpu.data     0.997503                       # Average percentage of cache occupancy
system.cpu.dcache.tags.occ_percent::total     0.997503                       # Average percentage of cache occupancy
system.cpu.dcache.tags.occ_task_id_blocks::1024         2048                       # Occupied blocks per task id
system.cpu.dcache.tags.age_task_id_blocks_1024::1            2                       # Occupied blocks per task id
system.cpu.dcache.tags.age_task_id_blocks_1024::2           16                       # Occupied blocks per task id
system.cpu.dcache.tags.age_task_id_blocks_1024::3         1214                       # Occupied blocks per task id
system.cpu.dcache.tags.age_task_id_blocks_1024::4          816                       # Occupied blocks per task id
system.cpu.dcache.tags.occ_task_id_percent::1024            1                       # Percentage of cache occupancy per task id
system.cpu.dcache.tags.tag_accesses         594015469                       # Number of tag accesses
system.cpu.dcache.tags.data_accesses        594015469                       # Number of data accesses
system.cpu.dcache.ReadReq_hits::cpu.data    224491166                       # number of ReadReq hits
system.cpu.dcache.ReadReq_hits::total       224491166                       # number of ReadReq hits
system.cpu.dcache.WriteReq_hits::cpu.data     69449700                       # number of WriteReq hits
system.cpu.dcache.WriteReq_hits::total       69449700                       # number of WriteReq hits
system.cpu.dcache.demand_hits::cpu.data     293940866                       # number of demand (read+write) hits
system.cpu.dcache.demand_hits::total        293940866                       # number of demand (read+write) hits
system.cpu.dcache.overall_hits::cpu.data    293940866                       # number of overall hits
system.cpu.dcache.overall_hits::total       293940866                       # number of overall hits
system.cpu.dcache.ReadReq_misses::cpu.data      1439192                       # number of ReadReq misses
system.cpu.dcache.ReadReq_misses::total       1439192                       # number of ReadReq misses
system.cpu.dcache.WriteReq_misses::cpu.data       589003                       # number of WriteReq misses
system.cpu.dcache.WriteReq_misses::total       589003                       # number of WriteReq misses
system.cpu.dcache.SoftPFReq_misses::cpu.data        16384                       # number of SoftPFReq misses
system.cpu.dcache.SoftPFReq_misses::total        16384                       # number of SoftPFReq misses
system.cpu.dcache.demand_misses::cpu.data      2028195                       # number of demand (read+write) misses
system.cpu.dcache.demand_misses::total        2028195                       # number of demand (read+write) misses
system.cpu.dcache.overall_misses::cpu.data      2044579                       # number of overall misses
system.cpu.dcache.overall_misses::total       2044579                       # number of overall misses
system.cpu.dcache.ReadReq_miss_latency::cpu.data  49486298500                       # number of ReadReq miss cycles
system.cpu.dcache.ReadReq_miss_latency::total  49486298500                       # number of ReadReq miss cycles
system.cpu.dcache.WriteReq_miss_latency::cpu.data  30764365000                       # number of WriteReq miss cycles
system.cpu.dcache.WriteReq_miss_latency::total  30764365000                       # number of WriteReq miss cycles
system.cpu.dcache.demand_miss_latency::cpu.data  80250663500                       # number of demand (read+write) miss cycles
system.cpu.dcache.demand_miss_latency::total  80250663500                       # number of demand (read+write) miss cycles
system.cpu.dcache.overall_miss_latency::cpu.data  80250663500                       # number of overall miss cycles
system.cpu.dcache.overall_miss_latency::total  80250663500                       # number of overall miss cycles
system.cpu.dcache.ReadReq_accesses::cpu.data    225930358                       # number of ReadReq accesses(hits+misses)
system.cpu.dcache.ReadReq_accesses::total    225930358                       # number of ReadReq accesses(hits+misses)
system.cpu.dcache.WriteReq_accesses::cpu.data     70038703                       # number of WriteReq accesses(hits+misses)
system.cpu.dcache.WriteReq_accesses::total     70038703                       # number of WriteReq accesses(hits+misses)
system.cpu.dcache.SoftPFReq_accesses::cpu.data        16384                       # number of SoftPFReq accesses(hits+misses)
system.cpu.dcache.SoftPFReq_accesses::total        16384                       # number of SoftPFReq accesses(hits+misses)
system.cpu.dcache.demand_accesses::cpu.data    295969061                       # number of demand (read+write) accesses
system.cpu.dcache.demand_accesses::total    295969061                       # number of demand (read+write) accesses
system.cpu.dcache.overall_accesses::cpu.data    295985445                       # number of overall (read+write) accesses
system.cpu.dcache.overall_accesses::total    295985445                       # number of overall (read+write) accesses
system.cpu.dcache.ReadReq_miss_rate::cpu.data     0.006370                       # miss rate for ReadReq accesses
system.cpu.dcache.ReadReq_miss_rate::total     0.006370                       # miss rate for ReadReq accesses
system.cpu.dcache.WriteReq_miss_rate::cpu.data     0.008410                       # miss rate for WriteReq accesses
system.cpu.dcache.WriteReq_miss_rate::total     0.008410                       # miss rate for WriteReq accesses
system.cpu.dcache.SoftPFReq_miss_rate::cpu.data            1                       # miss rate for SoftPFReq accesses
system.cpu.dcache.SoftPFReq_miss_rate::total            1                       # miss rate for SoftPFReq accesses
system.cpu.dcache.demand_miss_rate::cpu.data     0.006853                       # miss rate for demand accesses
system.cpu.dcache.demand_miss_rate::total     0.006853                       # miss rate for demand accesses
system.cpu.dcache.overall_miss_rate::cpu.data     0.006908                       # miss rate for overall accesses
system.cpu.dcache.overall_miss_rate::total     0.006908                       # miss rate for overall accesses
system.cpu.dcache.ReadReq_avg_miss_latency::cpu.data 34384.778751                       # average ReadReq miss latency
system.cpu.dcache.ReadReq_avg_miss_latency::total 34384.778751                       # average ReadReq miss latency
system.cpu.dcache.WriteReq_avg_miss_latency::cpu.data 52231.253491                       # average WriteReq miss latency
system.cpu.dcache.WriteReq_avg_miss_latency::total 52231.253491                       # average WriteReq miss latency
system.cpu.dcache.demand_avg_miss_latency::cpu.data 39567.528517                       # average overall miss latency
system.cpu.dcache.demand_avg_miss_latency::total 39567.528517                       # average overall miss latency
system.cpu.dcache.overall_avg_miss_latency::cpu.data 39250.458652                       # average overall miss latency
system.cpu.dcache.overall_avg_miss_latency::total 39250.458652                       # average overall miss latency
system.cpu.dcache.blocked_cycles::no_mshrs       234211                       # number of cycles access was blocked
system.cpu.dcache.blocked_cycles::no_targets            0                       # number of cycles access was blocked
system.cpu.dcache.blocked::no_mshrs              5292                       # number of cycles access was blocked
system.cpu.dcache.blocked::no_targets               0                       # number of cycles access was blocked
system.cpu.dcache.avg_blocked_cycles::no_mshrs    44.257559                       # average number of cycles each access was blocked
system.cpu.dcache.avg_blocked_cycles::no_targets          nan                       # average number of cycles each access was blocked
system.cpu.dcache.fast_writes                       0                       # number of fast writes performed
system.cpu.dcache.cache_copies                      0                       # number of cache copies performed
system.cpu.dcache.writebacks::writebacks       947437                       # number of writebacks
system.cpu.dcache.writebacks::total            947437                       # number of writebacks
system.cpu.dcache.ReadReq_mshr_misses::cpu.data      1439192                       # number of ReadReq MSHR misses
system.cpu.dcache.ReadReq_mshr_misses::total      1439192                       # number of ReadReq MSHR misses
system.cpu.dcache.WriteReq_mshr_misses::cpu.data       589003                       # number of WriteReq MSHR misses
system.cpu.dcache.WriteReq_mshr_misses::total       589003                       # number of WriteReq MSHR misses
system.cpu.dcache.SoftPFReq_mshr_misses::cpu.data        16384                       # number of SoftPFReq MSHR misses
system.cpu.dcache.SoftPFReq_mshr_misses::total        16384                       # number of SoftPFReq MSHR misses
system.cpu.dcache.demand_mshr_misses::cpu.data      2028195                       # number of demand (read+write) MSHR misses
system.cpu.dcache.demand_mshr_misses::total      2028195                       # number of demand (read+write) MSHR misses
system.cpu.dcache.overall_mshr_misses::cpu.data      2044579                       # number of overall MSHR misses
system.cpu.dcache.overall_mshr_misses::total      2044579                       # number of overall MSHR misses
system.cpu.dcache.ReadReq_mshr_miss_latency::cpu.data  48047106500                       # number of ReadReq MSHR miss cycles
system.cpu.dcache.ReadReq_mshr_miss_latency::total  48047106500                       # number of ReadReq MSHR miss cycles
system.cpu.dcache.WriteReq_mshr_miss_latency::cpu.data  30175362000                       # number of WriteReq MSHR miss cycles
system.cpu.dcache.WriteReq_mshr_miss_latency::total  30175362000                       # number of WriteReq MSHR miss cycles
system.cpu.dcache.SoftPFReq_mshr_miss_latency::cpu.data   1279536479                       # number of SoftPFReq MSHR miss cycles
system.cpu.dcache.SoftPFReq_mshr_miss_latency::total   1279536479                       # number of SoftPFReq MSHR miss cycles
system.cpu.dcache.demand_mshr_miss_latency::cpu.data  78222468500                       # number of demand (read+write) MSHR miss cycles
system.cpu.dcache.demand_mshr_miss_latency::total  78222468500                       # number of demand (read+write) MSHR miss cycles
system.cpu.dcache.overall_mshr_miss_latency::cpu.data  79502004979                       # number of overall MSHR miss cycles
system.cpu.dcache.overall_mshr_miss_latency::total  79502004979                       # number of overall MSHR miss cycles
system.cpu.dcache.ReadReq_mshr_miss_rate::cpu.data     0.006370                       # mshr miss rate for ReadReq accesses
system.cpu.dcache.ReadReq_mshr_miss_rate::total     0.006370                       # mshr miss rate for ReadReq accesses
system.cpu.dcache.WriteReq_mshr_miss_rate::cpu.data     0.008410                       # mshr miss rate for WriteReq accesses
system.cpu.dcache.WriteReq_mshr_miss_rate::total     0.008410                       # mshr miss rate for WriteReq accesses
system.cpu.dcache.SoftPFReq_mshr_miss_rate::cpu.data            1                       # mshr miss rate for SoftPFReq accesses
system.cpu.dcache.SoftPFReq_mshr_miss_rate::total            1                       # mshr miss rate for SoftPFReq accesses
system.cpu.dcache.demand_mshr_miss_rate::cpu.data     0.006853                       # mshr miss rate for demand accesses
system.cpu.dcache.demand_mshr_miss_rate::total     0.006853                       # mshr miss rate for demand accesses
system.cpu.dcache.overall_mshr_miss_rate::cpu.data     0.006908                       # mshr miss rate for overall accesses
system.cpu.dcache.overall_mshr_miss_rate::total     0.006908                       # mshr miss rate for overall accesses
system.cpu.dcache.ReadReq_avg_mshr_miss_latency::cpu.data 33384.778751                       # average ReadReq mshr miss latency
system.cpu.dcache.ReadReq_avg_mshr_miss_latency::total 33384.778751                       # average ReadReq mshr miss latency
system.cpu.dcache.WriteReq_avg_mshr_miss_latency::cpu.data 51231.253491                       # average WriteReq mshr miss latency
system.cpu.dcache.WriteReq_avg_mshr_miss_latency::total 51231.253491                       # average WriteReq mshr miss latency
system.cpu.dcache.SoftPFReq_avg_mshr_miss_latency::cpu.data 78096.708923                       # average SoftPFReq mshr miss latency
system.cpu.dcache.SoftPFReq_avg_mshr_miss_latency::total 78096.708923                       # average SoftPFReq mshr miss latency
system.cpu.dcache.demand_avg_mshr_miss_latency::cpu.data 38567.528517                       # average overall mshr miss latency
system.cpu.dcache.demand_avg_mshr_miss_latency::total 38567.528517                       # average overall mshr miss latency
system.cpu.dcache.overall_avg_mshr_miss_latency::cpu.data 38884.291083                       # average overall mshr miss latency
system.cpu.dcache.overall_avg_mshr_miss_latency::total 38884.291083                       # average overall mshr miss latency
system.cpu.dcache.no_allocate_misses                0                       # Number of misses that were no-allocate
system.cpu.dtb_walker_cache.tags.replacements            0                       # number of replacements
system.cpu.dtb_walker_cache.tags.tagsinuse            0                       # Cycle average of tags in use
system.cpu.dtb_walker_cache.tags.total_refs            0                       # Total number of references to valid blocks.
system.cpu.dtb_walker_cache.tags.sampled_refs            0                       # Sample count of references to valid blocks.
system.cpu.dtb_walker_cache.tags.avg_refs          nan                       # Average number of references to valid blocks.
system.cpu.dtb_walker_cache.tags.warmup_cycle            0                       # Cycle when the warmup percentage was hit.
system.cpu.dtb_walker_cache.tags.tag_accesses            0                       # Number of tag accesses
system.cpu.dtb_walker_cache.tags.data_accesses            0                       # Number of data accesses
system.cpu.dtb_walker_cache.blocked_cycles::no_mshrs            0                       # number of cycles access was blocked
system.cpu.dtb_walker_cache.blocked_cycles::no_targets            0                       # number of cycles access was blocked
system.cpu.dtb_walker_cache.blocked::no_mshrs            0                       # number of cycles access was blocked
system.cpu.dtb_walker_cache.blocked::no_targets            0                       # number of cycles access was blocked
system.cpu.dtb_walker_cache.avg_blocked_cycles::no_mshrs          nan                       # average number of cycles each access was blocked
system.cpu.dtb_walker_cache.avg_blocked_cycles::no_targets          nan                       # average number of cycles each access was blocked
system.cpu.dtb_walker_cache.fast_writes             0                       # number of fast writes performed
system.cpu.dtb_walker_cache.cache_copies            0                       # number of cache copies performed
system.cpu.dtb_walker_cache.no_allocate_misses            0                       # Number of misses that were no-allocate
system.cpu.icache.tags.replacements          11764490                       # number of replacements
system.cpu.icache.tags.tagsinuse            15.999973                       # Cycle average of tags in use
system.cpu.icache.tags.total_refs           675633354                       # Total number of references to valid blocks.
system.cpu.icache.tags.sampled_refs          11764506                       # Sample count of references to valid blocks.
system.cpu.icache.tags.avg_refs             57.429811                       # Average number of references to valid blocks.
system.cpu.icache.tags.warmup_cycle           4187500                       # Cycle when the warmup percentage was hit.
system.cpu.icache.tags.occ_blocks::cpu.inst    15.999973                       # Average occupied blocks per requestor
system.cpu.icache.tags.occ_percent::cpu.inst     0.999998                       # Average percentage of cache occupancy
system.cpu.icache.tags.occ_percent::total     0.999998                       # Average percentage of cache occupancy
system.cpu.icache.tags.occ_task_id_blocks::1024           16                       # Occupied blocks per task id
system.cpu.icache.tags.age_task_id_blocks_1024::1            7                       # Occupied blocks per task id
system.cpu.icache.tags.age_task_id_blocks_1024::3            9                       # Occupied blocks per task id
system.cpu.icache.tags.occ_task_id_percent::1024            1                       # Percentage of cache occupancy per task id
system.cpu.icache.tags.tag_accesses        1386560226                       # Number of tag accesses
system.cpu.icache.tags.data_accesses       1386560226                       # Number of data accesses
system.cpu.icache.ReadReq_hits::cpu.inst    675633354                       # number of ReadReq hits
system.cpu.icache.ReadReq_hits::total       675633354                       # number of ReadReq hits
system.cpu.icache.demand_hits::cpu.inst     675633354                       # number of demand (read+write) hits
system.cpu.icache.demand_hits::total        675633354                       # number of demand (read+write) hits
system.cpu.icache.overall_hits::cpu.inst    675633354                       # number of overall hits
system.cpu.icache.overall_hits::total       675633354                       # number of overall hits
system.cpu.icache.ReadReq_misses::cpu.inst     11764506                       # number of ReadReq misses
system.cpu.icache.ReadReq_misses::total      11764506                       # number of ReadReq misses
system.cpu.icache.demand_misses::cpu.inst     11764506                       # number of demand (read+write) misses
system.cpu.icache.demand_misses::total       11764506                       # number of demand (read+write) misses
system.cpu.icache.overall_misses::cpu.inst     11764506                       # number of overall misses
system.cpu.icache.overall_misses::total      11764506                       # number of overall misses
system.cpu.icache.ReadReq_miss_latency::cpu.inst 153946949500                       # number of ReadReq miss cycles
system.cpu.icache.ReadReq_miss_latency::total 153946949500                       # number of ReadReq miss cycles
system.cpu.icache.demand_miss_latency::cpu.inst 153946949500                       # number of demand (read+write) miss cycles
system.cpu.icache.demand_miss_latency::total 153946949500                       # number of demand (read+write) miss cycles
system.cpu.icache.overall_miss_latency::cpu.inst 153946949500                       # number of overall miss cycles
system.cpu.icache.overall_miss_latency::total 153946949500                       # number of overall miss cycles
system.cpu.icache.ReadReq_accesses::cpu.inst    687397860                       # number of ReadReq accesses(hits+misses)
system.cpu.icache.ReadReq_accesses::total    687397860                       # number of ReadReq accesses(hits+misses)
system.cpu.icache.demand_accesses::cpu.inst    687397860                       # number of demand (read+write) accesses
system.cpu.icache.demand_accesses::total    687397860                       # number of demand (read+write) accesses
system.cpu.icache.overall_accesses::cpu.inst    687397860                       # number of overall (read+write) accesses
system.cpu.icache.overall_accesses::total    687397860                       # number of overall (read+write) accesses
system.cpu.icache.ReadReq_miss_rate::cpu.inst     0.017115                       # miss rate for ReadReq accesses
system.cpu.icache.ReadReq_miss_rate::total     0.017115                       # miss rate for ReadReq accesses
system.cpu.icache.demand_miss_rate::cpu.inst     0.017115                       # miss rate for demand accesses
system.cpu.icache.demand_miss_rate::total     0.017115                       # miss rate for demand accesses
system.cpu.icache.overall_miss_rate::cpu.inst     0.017115                       # miss rate for overall accesses
system.cpu.icache.overall_miss_rate::total     0.017115                       # miss rate for overall accesses
system.cpu.icache.ReadReq_avg_miss_latency::cpu.inst 13085.713034                       # average ReadReq miss latency
system.cpu.icache.ReadReq_avg_miss_latency::total 13085.713034                       # average ReadReq miss latency
system.cpu.icache.demand_avg_miss_latency::cpu.inst 13085.713034                       # average overall miss latency
system.cpu.icache.demand_avg_miss_latency::total 13085.713034                       # average overall miss latency
system.cpu.icache.overall_avg_miss_latency::cpu.inst 13085.713034                       # average overall miss latency
system.cpu.icache.overall_avg_miss_latency::total 13085.713034                       # average overall miss latency
system.cpu.icache.blocked_cycles::no_mshrs            0                       # number of cycles access was blocked
system.cpu.icache.blocked_cycles::no_targets            0                       # number of cycles access was blocked
system.cpu.icache.blocked::no_mshrs                 0                       # number of cycles access was blocked
system.cpu.icache.blocked::no_targets               0                       # number of cycles access was blocked
system.cpu.icache.avg_blocked_cycles::no_mshrs          nan                       # average number of cycles each access was blocked
system.cpu.icache.avg_blocked_cycles::no_targets          nan                       # average number of cycles each access was blocked
system.cpu.icache.fast_writes                       0                       # number of fast writes performed
system.cpu.icache.cache_copies                      0                       # number of cache copies performed
system.cpu.icache.writebacks::writebacks     11764490                       # number of writebacks
system.cpu.icache.writebacks::total          11764490                       # number of writebacks
system.cpu.icache.ReadReq_mshr_misses::cpu.inst     11764506                       # number of ReadReq MSHR misses
system.cpu.icache.ReadReq_mshr_misses::total     11764506                       # number of ReadReq MSHR misses
system.cpu.icache.demand_mshr_misses::cpu.inst     11764506                       # number of demand (read+write) MSHR misses
system.cpu.icache.demand_mshr_misses::total     11764506                       # number of demand (read+write) MSHR misses
system.cpu.icache.overall_mshr_misses::cpu.inst     11764506                       # number of overall MSHR misses
system.cpu.icache.overall_mshr_misses::total     11764506                       # number of overall MSHR misses
system.cpu.icache.ReadReq_mshr_miss_latency::cpu.inst 142182443500                       # number of ReadReq MSHR miss cycles
system.cpu.icache.ReadReq_mshr_miss_latency::total 142182443500                       # number of ReadReq MSHR miss cycles
system.cpu.icache.demand_mshr_miss_latency::cpu.inst 142182443500                       # number of demand (read+write) MSHR miss cycles
system.cpu.icache.demand_mshr_miss_latency::total 142182443500                       # number of demand (read+write) MSHR miss cycles
system.cpu.icache.overall_mshr_miss_latency::cpu.inst 142182443500                       # number of overall MSHR miss cycles
system.cpu.icache.overall_mshr_miss_latency::total 142182443500                       # number of overall MSHR miss cycles
system.cpu.icache.ReadReq_mshr_miss_rate::cpu.inst     0.017115                       # mshr miss rate for ReadReq accesses
system.cpu.icache.ReadReq_mshr_miss_rate::total     0.017115                       # mshr miss rate for ReadReq accesses
system.cpu.icache.demand_mshr_miss_rate::cpu.inst     0.017115                       # mshr miss rate for demand accesses
system.cpu.icache.demand_mshr_miss_rate::total     0.017115                       # mshr miss rate for demand accesses
system.cpu.icache.overall_mshr_miss_rate::cpu.inst     0.017115                       # mshr miss rate for overall accesses
system.cpu.icache.overall_mshr_miss_rate::total     0.017115                       # mshr miss rate for overall accesses
system.cpu.icache.ReadReq_avg_mshr_miss_latency::cpu.inst 12085.713034                       # average ReadReq mshr miss latency
system.cpu.icache.ReadReq_avg_mshr_miss_latency::total 12085.713034                       # average ReadReq mshr miss latency
system.cpu.icache.demand_avg_mshr_miss_latency::cpu.inst 12085.713034                       # average overall mshr miss latency
system.cpu.icache.demand_avg_mshr_miss_latency::total 12085.713034                       # average overall mshr miss latency
system.cpu.icache.overall_avg_mshr_miss_latency::cpu.inst 12085.713034                       # average overall mshr miss latency
system.cpu.icache.overall_avg_mshr_miss_latency::total 12085.713034                       # average overall mshr miss latency
system.cpu.icache.no_allocate_misses                0                       # Number of misses that were no-allocate
system.cpu.itb_walker_cache.tags.replacements            0                       # number of replacements
system.cpu.itb_walker_cache.tags.tagsinuse            0                       # Cycle average of tags in use
system.cpu.itb_walker_cache.tags.total_refs            0                       # Total number of references to valid blocks.
system.cpu.itb_walker_cache.tags.sampled_refs            0                       # Sample count of references to valid blocks.
system.cpu.itb_walker_cache.tags.avg_refs          nan                       # Average number of references to valid blocks.
system.cpu.itb_walker_cache.tags.warmup_cycle            0                       # Cycle when the warmup percentage was hit.
system.cpu.itb_walker_cache.tags.tag_accesses            0                       # Number of tag accesses
system.cpu.itb_walker_cache.tags.data_accesses            0                       # Number of data accesses
system.cpu.itb_walker_cache.blocked_cycles::no_mshrs            0                       # number of cycles access was blocked
system.cpu.itb_walker_cache.blocked_cycles::no_targets            0                       # number of cycles access was blocked
system.cpu.itb_walker_cache.blocked::no_mshrs            0                       # number of cycles access was blocked
system.cpu.itb_walker_cache.blocked::no_targets            0                       # number of cycles access was blocked
system.cpu.itb_walker_cache.avg_blocked_cycles::no_mshrs          nan                       # average number of cycles each access was blocked
system.cpu.itb_walker_cache.avg_blocked_cycles::no_targets          nan                       # average number of cycles each access was blocked
system.cpu.itb_walker_cache.fast_writes             0                       # number of fast writes performed
system.cpu.itb_walker_cache.cache_copies            0                       # number of cache copies performed
system.cpu.itb_walker_cache.no_allocate_misses            0                       # Number of misses that were no-allocate
system.l2.tags.replacements                    775164                       # number of replacements
system.l2.tags.tagsinuse                 15659.247038                       # Cycle average of tags in use
system.l2.tags.total_refs                    26163878                       # Total number of references to valid blocks.
system.l2.tags.sampled_refs                    791084                       # Sample count of references to valid blocks.
system.l2.tags.avg_refs                     33.073451                       # Average number of references to valid blocks.
system.l2.tags.warmup_cycle              133580632500                       # Cycle when the warmup percentage was hit.
system.l2.tags.occ_blocks::writebacks     7378.673374                       # Average occupied blocks per requestor
system.l2.tags.occ_blocks::cpu.inst         93.913963                       # Average occupied blocks per requestor
system.l2.tags.occ_blocks::cpu.data       8186.659701                       # Average occupied blocks per requestor
system.l2.tags.occ_percent::writebacks       0.450358                       # Average percentage of cache occupancy
system.l2.tags.occ_percent::cpu.inst         0.005732                       # Average percentage of cache occupancy
system.l2.tags.occ_percent::cpu.data         0.499674                       # Average percentage of cache occupancy
system.l2.tags.occ_percent::total            0.955765                       # Average percentage of cache occupancy
system.l2.tags.occ_task_id_blocks::1024         15920                       # Occupied blocks per task id
system.l2.tags.age_task_id_blocks_1024::1            9                       # Occupied blocks per task id
system.l2.tags.age_task_id_blocks_1024::2           10                       # Occupied blocks per task id
system.l2.tags.age_task_id_blocks_1024::3           77                       # Occupied blocks per task id
system.l2.tags.age_task_id_blocks_1024::4        15824                       # Occupied blocks per task id
system.l2.tags.occ_task_id_percent::1024     0.971680                       # Percentage of cache occupancy per task id
system.l2.tags.tag_accesses                  28996192                       # Number of tag accesses
system.l2.tags.data_accesses                 28996192                       # Number of data accesses
system.l2.WritebackDirty_hits::writebacks       947437                       # number of WritebackDirty hits
system.l2.WritebackDirty_hits::total           947437                       # number of WritebackDirty hits
system.l2.WritebackClean_hits::writebacks     11764489                       # number of WritebackClean hits
system.l2.WritebackClean_hits::total         11764489                       # number of WritebackClean hits
system.l2.ReadExReq_hits::cpu.data             280104                       # number of ReadExReq hits
system.l2.ReadExReq_hits::total                280104                       # number of ReadExReq hits
system.l2.ReadCleanReq_hits::cpu.inst        11753392                       # number of ReadCleanReq hits
system.l2.ReadCleanReq_hits::total           11753392                       # number of ReadCleanReq hits
system.l2.ReadSharedReq_hits::cpu.data        1009195                       # number of ReadSharedReq hits
system.l2.ReadSharedReq_hits::total           1009195                       # number of ReadSharedReq hits
system.l2.demand_hits::cpu.inst              11753392                       # number of demand (read+write) hits
system.l2.demand_hits::cpu.data               1289299                       # number of demand (read+write) hits
system.l2.demand_hits::total                 13042691                       # number of demand (read+write) hits
system.l2.overall_hits::cpu.inst             11753392                       # number of overall hits
system.l2.overall_hits::cpu.data              1289299                       # number of overall hits
system.l2.overall_hits::total                13042691                       # number of overall hits
system.l2.ReadExReq_misses::cpu.data           308899                       # number of ReadExReq misses
system.l2.ReadExReq_misses::total              308899                       # number of ReadExReq misses
system.l2.ReadCleanReq_misses::cpu.inst         11114                       # number of ReadCleanReq misses
system.l2.ReadCleanReq_misses::total            11114                       # number of ReadCleanReq misses
system.l2.ReadSharedReq_misses::cpu.data       446381                       # number of ReadSharedReq misses
system.l2.ReadSharedReq_misses::total          446381                       # number of ReadSharedReq misses
system.l2.demand_misses::cpu.inst               11114                       # number of demand (read+write) misses
system.l2.demand_misses::cpu.data              755280                       # number of demand (read+write) misses
system.l2.demand_misses::total                 766394                       # number of demand (read+write) misses
system.l2.overall_misses::cpu.inst              11114                       # number of overall misses
system.l2.overall_misses::cpu.data             755280                       # number of overall misses
system.l2.overall_misses::total                766394                       # number of overall misses
system.l2.ReadExReq_miss_latency::cpu.data  26350567500                       # number of ReadExReq miss cycles
system.l2.ReadExReq_miss_latency::total   26350567500                       # number of ReadExReq miss cycles
system.l2.ReadCleanReq_miss_latency::cpu.inst    902389500                       # number of ReadCleanReq miss cycles
system.l2.ReadCleanReq_miss_latency::total    902389500                       # number of ReadCleanReq miss cycles
system.l2.ReadSharedReq_miss_latency::cpu.data  36546648500                       # number of ReadSharedReq miss cycles
system.l2.ReadSharedReq_miss_latency::total  36546648500                       # number of ReadSharedReq miss cycles
system.l2.demand_miss_latency::cpu.inst     902389500                       # number of demand (read+write) miss cycles
system.l2.demand_miss_latency::cpu.data   62897216000                       # number of demand (read+write) miss cycles
system.l2.demand_miss_latency::total      63799605500                       # number of demand (read+write) miss cycles
system.l2.overall_miss_latency::cpu.inst    902389500                       # number of overall miss cycles
system.l2.overall_miss_latency::cpu.data  62897216000                       # number of overall miss cycles
system.l2.overall_miss_latency::total     63799605500                       # number of overall miss cycles
system.l2.WritebackDirty_accesses::writebacks       947437                       # number of WritebackDirty accesses(hits+misses)
system.l2.WritebackDirty_accesses::total       947437                       # number of WritebackDirty accesses(hits+misses)
system.l2.WritebackClean_accesses::writebacks     11764489                       # number of WritebackClean accesses(hits+misses)
system.l2.WritebackClean_accesses::total     11764489                       # number of WritebackClean accesses(hits+misses)
system.l2.ReadExReq_accesses::cpu.data         589003                       # number of ReadExReq accesses(hits+misses)
system.l2.ReadExReq_accesses::total            589003                       # number of ReadExReq accesses(hits+misses)
system.l2.ReadCleanReq_accesses::cpu.inst     11764506                       # number of ReadCleanReq accesses(hits+misses)
system.l2.ReadCleanReq_accesses::total       11764506                       # number of ReadCleanReq accesses(hits+misses)
system.l2.ReadSharedReq_accesses::cpu.data      1455576                       # number of ReadSharedReq accesses(hits+misses)
system.l2.ReadSharedReq_accesses::total       1455576                       # number of ReadSharedReq accesses(hits+misses)
system.l2.demand_accesses::cpu.inst          11764506                       # number of demand (read+write) accesses
system.l2.demand_accesses::cpu.data           2044579                       # number of demand (read+write) accesses
system.l2.demand_accesses::total             13809085                       # number of demand (read+write) accesses
system.l2.overall_accesses::cpu.inst         11764506                       # number of overall (read+write) accesses
system.l2.overall_accesses::cpu.data          2044579                       # number of overall (read+write) accesses
system.l2.overall_accesses::total            13809085                       # number of overall (read+write) accesses
system.l2.ReadExReq_miss_rate::cpu.data      0.524444                       # miss rate for ReadExReq accesses
system.l2.ReadExReq_miss_rate::total         0.524444                       # miss rate for ReadExReq accesses
system.l2.ReadCleanReq_miss_rate::cpu.inst     0.000945                       # miss rate for ReadCleanReq accesses
system.l2.ReadCleanReq_miss_rate::total      0.000945                       # miss rate for ReadCleanReq accesses
system.l2.ReadSharedReq_miss_rate::cpu.data     0.306670                       # miss rate for ReadSharedReq accesses
system.l2.ReadSharedReq_miss_rate::total     0.306670                       # miss rate for ReadSharedReq accesses
system.l2.demand_miss_rate::cpu.inst         0.000945                       # miss rate for demand accesses
system.l2.demand_miss_rate::cpu.data         0.369406                       # miss rate for demand accesses
system.l2.demand_miss_rate::total            0.055499                       # miss rate for demand accesses
system.l2.overall_miss_rate::cpu.inst        0.000945                       # miss rate for overall accesses
system.l2.overall_miss_rate::cpu.data        0.369406                       # miss rate for overall accesses
system.l2.overall_miss_rate::total           0.055499                       # miss rate for overall accesses
system.l2.ReadExReq_avg_miss_latency::cpu.data 85304.800275                       # average ReadExReq miss latency
system.l2.ReadExReq_avg_miss_latency::total 85304.800275                       # average ReadExReq miss latency
system.l2.ReadCleanReq_avg_miss_latency::cpu.inst 81193.944574                       # average ReadCleanReq miss latency
system.l2.ReadCleanReq_avg_miss_latency::total 81193.944574                       # average ReadCleanReq miss latency
system.l2.ReadSharedReq_avg_miss_latency::cpu.data 81873.217050                       # average ReadSharedReq miss latency
system.l2.ReadSharedReq_avg_miss_latency::total 81873.217050                       # average ReadSharedReq miss latency
system.l2.demand_avg_miss_latency::cpu.inst 81193.944574                       # average overall miss latency
system.l2.demand_avg_miss_latency::cpu.data 83276.686792                       # average overall miss latency
system.l2.demand_avg_miss_latency::total 83246.483532                       # average overall miss latency
system.l2.overall_avg_miss_latency::cpu.inst 81193.944574                       # average overall miss latency
system.l2.overall_avg_miss_latency::cpu.data 83276.686792                       # average overall miss latency
system.l2.overall_avg_miss_latency::total 83246.483532                       # average overall miss latency
system.l2.blocked_cycles::no_mshrs                  0                       # number of cycles access was blocked
system.l2.blocked_cycles::no_targets                0                       # number of cycles access was blocked
system.l2.blocked::no_mshrs                         0                       # number of cycles access was blocked
system.l2.blocked::no_targets                       0                       # number of cycles access was blocked
system.l2.avg_blocked_cycles::no_mshrs            nan                       # average number of cycles each access was blocked
system.l2.avg_blocked_cycles::no_targets          nan                       # average number of cycles each access was blocked
system.l2.fast_writes                               0                       # number of fast writes performed
system.l2.cache_copies                              0                       # number of cache copies performed
system.l2.writebacks::writebacks               389821                       # number of writebacks
system.l2.writebacks::total                    389821                       # number of writebacks
system.l2.CleanEvict_mshr_misses::writebacks        71915                       # number of CleanEvict MSHR misses
system.l2.CleanEvict_mshr_misses::total         71915                       # number of CleanEvict MSHR misses
system.l2.ReadExReq_mshr_misses::cpu.data       308899                       # number of ReadExReq MSHR misses
system.l2.ReadExReq_mshr_misses::total         308899                       # number of ReadExReq MSHR misses
system.l2.ReadCleanReq_mshr_misses::cpu.inst        11114                       # number of ReadCleanReq MSHR misses
system.l2.ReadCleanReq_mshr_misses::total        11114                       # number of ReadCleanReq MSHR misses
system.l2.ReadSharedReq_mshr_misses::cpu.data       446381                       # number of ReadSharedReq MSHR misses
system.l2.ReadSharedReq_mshr_misses::total       446381                       # number of ReadSharedReq MSHR misses
system.l2.demand_mshr_misses::cpu.inst          11114                       # number of demand (read+write) MSHR misses
system.l2.demand_mshr_misses::cpu.data         755280                       # number of demand (read+write) MSHR misses
system.l2.demand_mshr_misses::total            766394                       # number of demand (read+write) MSHR misses
system.l2.overall_mshr_misses::cpu.inst         11114                       # number of overall MSHR misses
system.l2.overall_mshr_misses::cpu.data        755280                       # number of overall MSHR misses
system.l2.overall_mshr_misses::total           766394                       # number of overall MSHR misses
system.l2.ReadExReq_mshr_miss_latency::cpu.data  23261577500                       # number of ReadExReq MSHR miss cycles
system.l2.ReadExReq_mshr_miss_latency::total  23261577500                       # number of ReadExReq MSHR miss cycles
system.l2.ReadCleanReq_mshr_miss_latency::cpu.inst    791249500                       # number of ReadCleanReq MSHR miss cycles
system.l2.ReadCleanReq_mshr_miss_latency::total    791249500                       # number of ReadCleanReq MSHR miss cycles
system.l2.ReadSharedReq_mshr_miss_latency::cpu.data  32082838500                       # number of ReadSharedReq MSHR miss cycles
system.l2.ReadSharedReq_mshr_miss_latency::total  32082838500                       # number of ReadSharedReq MSHR miss cycles
system.l2.demand_mshr_miss_latency::cpu.inst    791249500                       # number of demand (read+write) MSHR miss cycles
system.l2.demand_mshr_miss_latency::cpu.data  55344416000                       # number of demand (read+write) MSHR miss cycles
system.l2.demand_mshr_miss_latency::total  56135665500                       # number of demand (read+write) MSHR miss cycles
system.l2.overall_mshr_miss_latency::cpu.inst    791249500                       # number of overall MSHR miss cycles
system.l2.overall_mshr_miss_latency::cpu.data  55344416000                       # number of overall MSHR miss cycles
system.l2.overall_mshr_miss_latency::total  56135665500                       # number of overall MSHR miss cycles
system.l2.CleanEvict_mshr_miss_rate::writebacks          inf                       # mshr miss rate for CleanEvict accesses
system.l2.CleanEvict_mshr_miss_rate::total          inf                       # mshr miss rate for CleanEvict accesses
system.l2.ReadExReq_mshr_miss_rate::cpu.data     0.524444                       # mshr miss rate for ReadExReq accesses
system.l2.ReadExReq_mshr_miss_rate::total     0.524444                       # mshr miss rate for ReadExReq accesses
system.l2.ReadCleanReq_mshr_miss_rate::cpu.inst     0.000945                       # mshr miss rate for ReadCleanReq accesses
system.l2.ReadCleanReq_mshr_miss_rate::total     0.000945                       # mshr miss rate for ReadCleanReq accesses
system.l2.ReadSharedReq_mshr_miss_rate::cpu.data     0.306670                       # mshr miss rate for ReadSharedReq accesses
system.l2.ReadSharedReq_mshr_miss_rate::total     0.306670                       # mshr miss rate for ReadSharedReq accesses
system.l2.demand_mshr_miss_rate::cpu.inst     0.000945                       # mshr miss rate for demand accesses
system.l2.demand_mshr_miss_rate::cpu.data     0.369406                       # mshr miss rate for demand accesses
system.l2.demand_mshr_miss_rate::total       0.055499                       # mshr miss rate for demand accesses
system.l2.overall_mshr_miss_rate::cpu.inst     0.000945                       # mshr miss rate for overall accesses
system.l2.overall_mshr_miss_rate::cpu.data     0.369406                       # mshr miss rate for overall accesses
system.l2.overall_mshr_miss_rate::total      0.055499                       # mshr miss rate for overall accesses
system.l2.ReadExReq_avg_mshr_miss_latency::cpu.data 75304.800275                       # average ReadExReq mshr miss latency
system.l2.ReadExReq_avg_mshr_miss_latency::total 75304.800275                       # average ReadExReq mshr miss latency
system.l2.ReadCleanReq_avg_mshr_miss_latency::cpu.inst 71193.944574                       # average ReadCleanReq mshr miss latency
system.l2.ReadCleanReq_avg_mshr_miss_latency::total 71193.944574                       # average ReadCleanReq mshr miss latency
system.l2.ReadSharedReq_avg_mshr_miss_latency::cpu.data 71873.217050                       # average ReadSharedReq mshr miss latency
system.l2.ReadSharedReq_avg_mshr_miss_latency::total 71873.217050                       # average ReadSharedReq mshr miss latency
system.l2.demand_avg_mshr_miss_latency::cpu.inst 71193.944574                       # average overall mshr miss latency
system.l2.demand_avg_mshr_miss_latency::cpu.data 73276.686792                       # average overall mshr miss latency
system.l2.demand_avg_mshr_miss_latency::total 73246.483532                       # average overall mshr miss latency
system.l2.overall_avg_mshr_miss_latency::cpu.inst 71193.944574                       # average overall mshr miss latency
system.l2.overall_avg_mshr_miss_latency::cpu.data 73276.686792                       # average overall mshr miss latency
system.l2.overall_avg_mshr_miss_latency::total 73246.483532                       # average overall mshr miss latency
system.l2.no_allocate_misses                        0                       # Number of misses that were no-allocate
system.membus.trans_dist::ReadResp             457495                       # Transaction distribution
system.membus.trans_dist::WritebackDirty       389821                       # Transaction distribution
system.membus.trans_dist::CleanEvict           360187                       # Transaction distribution
system.membus.trans_dist::ReadExReq            308899                       # Transaction distribution
system.membus.trans_dist::ReadExResp           308899                       # Transaction distribution
system.membus.trans_dist::ReadSharedReq        457495                       # Transaction distribution
system.membus.pkt_count_system.l2.mem_side::system.mem_ctrls.port      2282796                       # Packet count per connected master and slave (bytes)
system.membus.pkt_count_system.l2.mem_side::total      2282796                       # Packet count per connected master and slave (bytes)
system.membus.pkt_count::total                2282796                       # Packet count per connected master and slave (bytes)
system.membus.pkt_size_system.l2.mem_side::system.mem_ctrls.port     73997760                       # Cumulative packet size per connected master and slave (bytes)
system.membus.pkt_size_system.l2.mem_side::total     73997760                       # Cumulative packet size per connected master and slave (bytes)
system.membus.pkt_size::total                73997760                       # Cumulative packet size per connected master and slave (bytes)
system.membus.snoops                                0                       # Total snoops (count)
system.membus.snoop_fanout::samples           1516402                       # Request fanout histogram
system.membus.snoop_fanout::mean                    0                       # Request fanout histogram
system.membus.snoop_fanout::stdev                   0                       # Request fanout histogram
system.membus.snoop_fanout::underflows              0      0.00%      0.00% # Request fanout histogram
system.membus.snoop_fanout::0                 1516402    100.00%    100.00% # Request fanout histogram
system.membus.snoop_fanout::1                       0      0.00%    100.00% # Request fanout histogram
system.membus.snoop_fanout::overflows               0      0.00%    100.00% # Request fanout histogram
system.membus.snoop_fanout::min_value               0                       # Request fanout histogram
system.membus.snoop_fanout::max_value               0                       # Request fanout histogram
system.membus.snoop_fanout::total             1516402                       # Request fanout histogram
system.membus.reqLayer2.occupancy          3087613000                       # Layer occupancy (ticks)
system.membus.reqLayer2.utilization               0.3                       # Layer utilization (%)
system.membus.respLayer1.occupancy         4146885750                       # Layer occupancy (ticks)
system.membus.respLayer1.utilization              0.3                       # Layer utilization (%)
system.tol2bus.snoop_filter.tot_requests     27616106                       # Total number of requests made to the snoop filter.
system.tol2bus.snoop_filter.hit_single_requests     13807021                       # Number of requests hitting in the snoop filter with a single holder of the requested data.
system.tol2bus.snoop_filter.hit_multi_requests            1                       # Number of requests hitting in the snoop filter with multiple (>1) holders of the requested data.
system.tol2bus.snoop_filter.tot_snoops          97071                       # Total number of snoops made to the snoop filter.
system.tol2bus.snoop_filter.hit_single_snoops        97071                       # Number of snoops hitting in the snoop filter with a single holder of the requested data.
system.tol2bus.snoop_filter.hit_multi_snoops            0                       # Number of snoops hitting in the snoop filter with multiple (>1) holders of the requested data.
system.tol2bus.trans_dist::ReadResp          13220082                       # Transaction distribution
system.tol2bus.trans_dist::WritebackDirty      1337258                       # Transaction distribution
system.tol2bus.trans_dist::WritebackClean     11764489                       # Transaction distribution
system.tol2bus.trans_dist::CleanEvict         1480437                       # Transaction distribution
system.tol2bus.trans_dist::ReadExReq           589003                       # Transaction distribution
system.tol2bus.trans_dist::ReadExResp          589003                       # Transaction distribution
system.tol2bus.trans_dist::ReadCleanReq      11764506                       # Transaction distribution
system.tol2bus.trans_dist::ReadSharedReq      1455576                       # Transaction distribution
system.tol2bus.pkt_count_system.cpu.icache.mem_side::system.l2.cpu_side     35293501                       # Packet count per connected master and slave (bytes)
system.tol2bus.pkt_count_system.cpu.dcache.mem_side::system.l2.cpu_side      6131689                       # Packet count per connected master and slave (bytes)
system.tol2bus.pkt_count::total              41425190                       # Packet count per connected master and slave (bytes)
system.tol2bus.pkt_size_system.cpu.icache.mem_side::system.l2.cpu_side   1505855680                       # Cumulative packet size per connected master and slave (bytes)
system.tol2bus.pkt_size_system.cpu.dcache.mem_side::system.l2.cpu_side    191489024                       # Cumulative packet size per connected master and slave (bytes)
system.tol2bus.pkt_size::total             1697344704                       # Cumulative packet size per connected master and slave (bytes)
system.tol2bus.snoops                          775164                       # Total snoops (count)
system.tol2bus.snoop_fanout::samples         14584249                       # Request fanout histogram
system.tol2bus.snoop_fanout::mean            0.006656                       # Request fanout histogram
system.tol2bus.snoop_fanout::stdev           0.081312                       # Request fanout histogram
system.tol2bus.snoop_fanout::underflows             0      0.00%      0.00% # Request fanout histogram
system.tol2bus.snoop_fanout::0               14487177     99.33%     99.33% # Request fanout histogram
system.tol2bus.snoop_fanout::1                  97072      0.67%    100.00% # Request fanout histogram
system.tol2bus.snoop_fanout::2                      0      0.00%    100.00% # Request fanout histogram
system.tol2bus.snoop_fanout::3                      0      0.00%    100.00% # Request fanout histogram
system.tol2bus.snoop_fanout::4                      0      0.00%    100.00% # Request fanout histogram
system.tol2bus.snoop_fanout::overflows              0      0.00%    100.00% # Request fanout histogram
system.tol2bus.snoop_fanout::min_value              0                       # Request fanout histogram
system.tol2bus.snoop_fanout::max_value              1                       # Request fanout histogram
system.tol2bus.snoop_fanout::total           14584249                       # Request fanout histogram
system.tol2bus.reqLayer0.occupancy        26519980000                       # Layer occupancy (ticks)
system.tol2bus.reqLayer0.utilization              2.2                       # Layer utilization (%)
system.tol2bus.respLayer0.occupancy       17646759000                       # Layer occupancy (ticks)
system.tol2bus.respLayer0.utilization             1.5                       # Layer utilization (%)
system.tol2bus.respLayer1.occupancy        3066868500                       # Layer occupancy (ticks)
system.tol2bus.respLayer1.utilization             0.3                       # Layer utilization (%)

---------- End Simulation Statistics   ----------
