
---------- Begin Simulation Statistics ----------
sim_seconds                                  1.051920                       # Number of seconds simulated
sim_ticks                                1051920287500                       # Number of ticks simulated
final_tick                               1051920287500                       # Number of ticks from beginning of simulation (restored from checkpoints and never reset)
sim_freq                                 1000000000000                       # Frequency of simulated ticks
host_inst_rate                                  37600                       # Simulator instruction rate (inst/s)
host_op_rate                                    54929                       # Simulator op (including micro ops) rate (op/s)
host_tick_rate                               79103526                       # Simulator tick rate (ticks/s)
host_mem_usage                                 828672                       # Number of bytes of host memory used
host_seconds                                 13298.02                       # Real time elapsed on the host
sim_insts                                   500000001                       # Number of instructions simulated
sim_ops                                     730450447                       # Number of ops (including micro ops) simulated
system.voltage_domain.voltage                       1                       # Voltage in Volts
system.clk_domain.clock                          1000                       # Clock period in ticks
system.mem_ctrls.bytes_read::cpu.inst           63552                       # Number of bytes read from this memory
system.mem_ctrls.bytes_read::cpu.data        39616384                       # Number of bytes read from this memory
system.mem_ctrls.bytes_read::total           39679936                       # Number of bytes read from this memory
system.mem_ctrls.bytes_inst_read::cpu.inst        63552                       # Number of instructions bytes read from this memory
system.mem_ctrls.bytes_inst_read::total         63552                       # Number of instructions bytes read from this memory
system.mem_ctrls.bytes_written::writebacks     23831296                       # Number of bytes written to this memory
system.mem_ctrls.bytes_written::total        23831296                       # Number of bytes written to this memory
system.mem_ctrls.num_reads::cpu.inst              993                       # Number of read requests responded to by this memory
system.mem_ctrls.num_reads::cpu.data           619006                       # Number of read requests responded to by this memory
system.mem_ctrls.num_reads::total              619999                       # Number of read requests responded to by this memory
system.mem_ctrls.num_writes::writebacks        372364                       # Number of write requests responded to by this memory
system.mem_ctrls.num_writes::total             372364                       # Number of write requests responded to by this memory
system.mem_ctrls.bw_read::cpu.inst              60415                       # Total read bandwidth from this memory (bytes/s)
system.mem_ctrls.bw_read::cpu.data           37661013                       # Total read bandwidth from this memory (bytes/s)
system.mem_ctrls.bw_read::total              37721429                       # Total read bandwidth from this memory (bytes/s)
system.mem_ctrls.bw_inst_read::cpu.inst         60415                       # Instruction read bandwidth from this memory (bytes/s)
system.mem_ctrls.bw_inst_read::total            60415                       # Instruction read bandwidth from this memory (bytes/s)
system.mem_ctrls.bw_write::writebacks        22655040                       # Write bandwidth from this memory (bytes/s)
system.mem_ctrls.bw_write::total             22655040                       # Write bandwidth from this memory (bytes/s)
system.mem_ctrls.bw_total::writebacks        22655040                       # Total bandwidth to/from this memory (bytes/s)
system.mem_ctrls.bw_total::cpu.inst             60415                       # Total bandwidth to/from this memory (bytes/s)
system.mem_ctrls.bw_total::cpu.data          37661013                       # Total bandwidth to/from this memory (bytes/s)
system.mem_ctrls.bw_total::total             60376468                       # Total bandwidth to/from this memory (bytes/s)
system.mem_ctrls.readReqs                      619999                       # Number of read requests accepted
system.mem_ctrls.writeReqs                     372364                       # Number of write requests accepted
system.mem_ctrls.readBursts                    619999                       # Number of DRAM read bursts, including those serviced by the write queue
system.mem_ctrls.writeBursts                   372364                       # Number of DRAM write bursts, including those merged in the write queue
system.mem_ctrls.bytesReadDRAM               39609536                       # Total number of bytes read from DRAM
system.mem_ctrls.bytesReadWrQ                   70400                       # Total number of bytes read from write queue
system.mem_ctrls.bytesWritten                23830016                       # Total number of bytes written to DRAM
system.mem_ctrls.bytesReadSys                39679936                       # Total read bytes from the system interface side
system.mem_ctrls.bytesWrittenSys             23831296                       # Total written bytes from the system interface side
system.mem_ctrls.servicedByWrQ                   1100                       # Number of DRAM read bursts serviced by the write queue
system.mem_ctrls.mergedWrBursts                     0                       # Number of DRAM write bursts merged with an existing one
system.mem_ctrls.neitherReadNorWriteReqs       230309                       # Number of requests that are neither read nor write
system.mem_ctrls.perBankRdBursts::0             39725                       # Per bank write bursts
system.mem_ctrls.perBankRdBursts::1             38386                       # Per bank write bursts
system.mem_ctrls.perBankRdBursts::2             38298                       # Per bank write bursts
system.mem_ctrls.perBankRdBursts::3             38136                       # Per bank write bursts
system.mem_ctrls.perBankRdBursts::4             37684                       # Per bank write bursts
system.mem_ctrls.perBankRdBursts::5             37696                       # Per bank write bursts
system.mem_ctrls.perBankRdBursts::6             38880                       # Per bank write bursts
system.mem_ctrls.perBankRdBursts::7             38695                       # Per bank write bursts
system.mem_ctrls.perBankRdBursts::8             37863                       # Per bank write bursts
system.mem_ctrls.perBankRdBursts::9             37127                       # Per bank write bursts
system.mem_ctrls.perBankRdBursts::10            39107                       # Per bank write bursts
system.mem_ctrls.perBankRdBursts::11            39463                       # Per bank write bursts
system.mem_ctrls.perBankRdBursts::12            39282                       # Per bank write bursts
system.mem_ctrls.perBankRdBursts::13            38875                       # Per bank write bursts
system.mem_ctrls.perBankRdBursts::14            40019                       # Per bank write bursts
system.mem_ctrls.perBankRdBursts::15            39663                       # Per bank write bursts
system.mem_ctrls.perBankWrBursts::0             23989                       # Per bank write bursts
system.mem_ctrls.perBankWrBursts::1             22916                       # Per bank write bursts
system.mem_ctrls.perBankWrBursts::2             22793                       # Per bank write bursts
system.mem_ctrls.perBankWrBursts::3             22686                       # Per bank write bursts
system.mem_ctrls.perBankWrBursts::4             22297                       # Per bank write bursts
system.mem_ctrls.perBankWrBursts::5             21975                       # Per bank write bursts
system.mem_ctrls.perBankWrBursts::6             22608                       # Per bank write bursts
system.mem_ctrls.perBankWrBursts::7             23199                       # Per bank write bursts
system.mem_ctrls.perBankWrBursts::8             23672                       # Per bank write bursts
system.mem_ctrls.perBankWrBursts::9             23294                       # Per bank write bursts
system.mem_ctrls.perBankWrBursts::10            23887                       # Per bank write bursts
system.mem_ctrls.perBankWrBursts::11            23591                       # Per bank write bursts
system.mem_ctrls.perBankWrBursts::12            23400                       # Per bank write bursts
system.mem_ctrls.perBankWrBursts::13            23626                       # Per bank write bursts
system.mem_ctrls.perBankWrBursts::14            24439                       # Per bank write bursts
system.mem_ctrls.perBankWrBursts::15            23972                       # Per bank write bursts
system.mem_ctrls.numRdRetry                         0                       # Number of times read queue was full causing retry
system.mem_ctrls.numWrRetry                         0                       # Number of times write queue was full causing retry
system.mem_ctrls.totGap                  1051887460500                       # Total gap between requests
system.mem_ctrls.readPktSize::0                     0                       # Read request sizes (log2)
system.mem_ctrls.readPktSize::1                     0                       # Read request sizes (log2)
system.mem_ctrls.readPktSize::2                     0                       # Read request sizes (log2)
system.mem_ctrls.readPktSize::3                     0                       # Read request sizes (log2)
system.mem_ctrls.readPktSize::4                     0                       # Read request sizes (log2)
system.mem_ctrls.readPktSize::5                     0                       # Read request sizes (log2)
system.mem_ctrls.readPktSize::6                619999                       # Read request sizes (log2)
system.mem_ctrls.writePktSize::0                    0                       # Write request sizes (log2)
system.mem_ctrls.writePktSize::1                    0                       # Write request sizes (log2)
system.mem_ctrls.writePktSize::2                    0                       # Write request sizes (log2)
system.mem_ctrls.writePktSize::3                    0                       # Write request sizes (log2)
system.mem_ctrls.writePktSize::4                    0                       # Write request sizes (log2)
system.mem_ctrls.writePktSize::5                    0                       # Write request sizes (log2)
system.mem_ctrls.writePktSize::6               372364                       # Write request sizes (log2)
system.mem_ctrls.rdQLenPdf::0                  610155                       # What read queue length does an incoming req see
system.mem_ctrls.rdQLenPdf::1                    8041                       # What read queue length does an incoming req see
system.mem_ctrls.rdQLenPdf::2                     562                       # What read queue length does an incoming req see
system.mem_ctrls.rdQLenPdf::3                     141                       # What read queue length does an incoming req see
system.mem_ctrls.rdQLenPdf::4                       0                       # What read queue length does an incoming req see
system.mem_ctrls.rdQLenPdf::5                       0                       # What read queue length does an incoming req see
system.mem_ctrls.rdQLenPdf::6                       0                       # What read queue length does an incoming req see
system.mem_ctrls.rdQLenPdf::7                       0                       # What read queue length does an incoming req see
system.mem_ctrls.rdQLenPdf::8                       0                       # What read queue length does an incoming req see
system.mem_ctrls.rdQLenPdf::9                       0                       # What read queue length does an incoming req see
system.mem_ctrls.rdQLenPdf::10                      0                       # What read queue length does an incoming req see
system.mem_ctrls.rdQLenPdf::11                      0                       # What read queue length does an incoming req see
system.mem_ctrls.rdQLenPdf::12                      0                       # What read queue length does an incoming req see
system.mem_ctrls.rdQLenPdf::13                      0                       # What read queue length does an incoming req see
system.mem_ctrls.rdQLenPdf::14                      0                       # What read queue length does an incoming req see
system.mem_ctrls.rdQLenPdf::15                      0                       # What read queue length does an incoming req see
system.mem_ctrls.rdQLenPdf::16                      0                       # What read queue length does an incoming req see
system.mem_ctrls.rdQLenPdf::17                      0                       # What read queue length does an incoming req see
system.mem_ctrls.rdQLenPdf::18                      0                       # What read queue length does an incoming req see
system.mem_ctrls.rdQLenPdf::19                      0                       # What read queue length does an incoming req see
system.mem_ctrls.rdQLenPdf::20                      0                       # What read queue length does an incoming req see
system.mem_ctrls.rdQLenPdf::21                      0                       # What read queue length does an incoming req see
system.mem_ctrls.rdQLenPdf::22                      0                       # What read queue length does an incoming req see
system.mem_ctrls.rdQLenPdf::23                      0                       # What read queue length does an incoming req see
system.mem_ctrls.rdQLenPdf::24                      0                       # What read queue length does an incoming req see
system.mem_ctrls.rdQLenPdf::25                      0                       # What read queue length does an incoming req see
system.mem_ctrls.rdQLenPdf::26                      0                       # What read queue length does an incoming req see
system.mem_ctrls.rdQLenPdf::27                      0                       # What read queue length does an incoming req see
system.mem_ctrls.rdQLenPdf::28                      0                       # What read queue length does an incoming req see
system.mem_ctrls.rdQLenPdf::29                      0                       # What read queue length does an incoming req see
system.mem_ctrls.rdQLenPdf::30                      0                       # What read queue length does an incoming req see
system.mem_ctrls.rdQLenPdf::31                      0                       # What read queue length does an incoming req see
system.mem_ctrls.wrQLenPdf::0                       1                       # What write queue length does an incoming req see
system.mem_ctrls.wrQLenPdf::1                       1                       # What write queue length does an incoming req see
system.mem_ctrls.wrQLenPdf::2                       1                       # What write queue length does an incoming req see
system.mem_ctrls.wrQLenPdf::3                       1                       # What write queue length does an incoming req see
system.mem_ctrls.wrQLenPdf::4                       1                       # What write queue length does an incoming req see
system.mem_ctrls.wrQLenPdf::5                       1                       # What write queue length does an incoming req see
system.mem_ctrls.wrQLenPdf::6                       1                       # What write queue length does an incoming req see
system.mem_ctrls.wrQLenPdf::7                       1                       # What write queue length does an incoming req see
system.mem_ctrls.wrQLenPdf::8                       1                       # What write queue length does an incoming req see
system.mem_ctrls.wrQLenPdf::9                       1                       # What write queue length does an incoming req see
system.mem_ctrls.wrQLenPdf::10                      1                       # What write queue length does an incoming req see
system.mem_ctrls.wrQLenPdf::11                      1                       # What write queue length does an incoming req see
system.mem_ctrls.wrQLenPdf::12                      1                       # What write queue length does an incoming req see
system.mem_ctrls.wrQLenPdf::13                      1                       # What write queue length does an incoming req see
system.mem_ctrls.wrQLenPdf::14                      1                       # What write queue length does an incoming req see
system.mem_ctrls.wrQLenPdf::15                  13900                       # What write queue length does an incoming req see
system.mem_ctrls.wrQLenPdf::16                  14762                       # What write queue length does an incoming req see
system.mem_ctrls.wrQLenPdf::17                  21182                       # What write queue length does an incoming req see
system.mem_ctrls.wrQLenPdf::18                  21496                       # What write queue length does an incoming req see
system.mem_ctrls.wrQLenPdf::19                  21505                       # What write queue length does an incoming req see
system.mem_ctrls.wrQLenPdf::20                  21439                       # What write queue length does an incoming req see
system.mem_ctrls.wrQLenPdf::21                  21412                       # What write queue length does an incoming req see
system.mem_ctrls.wrQLenPdf::22                  21393                       # What write queue length does an incoming req see
system.mem_ctrls.wrQLenPdf::23                  21404                       # What write queue length does an incoming req see
system.mem_ctrls.wrQLenPdf::24                  21419                       # What write queue length does an incoming req see
system.mem_ctrls.wrQLenPdf::25                  21430                       # What write queue length does an incoming req see
system.mem_ctrls.wrQLenPdf::26                  21518                       # What write queue length does an incoming req see
system.mem_ctrls.wrQLenPdf::27                  21746                       # What write queue length does an incoming req see
system.mem_ctrls.wrQLenPdf::28                  22182                       # What write queue length does an incoming req see
system.mem_ctrls.wrQLenPdf::29                  21387                       # What write queue length does an incoming req see
system.mem_ctrls.wrQLenPdf::30                  21376                       # What write queue length does an incoming req see
system.mem_ctrls.wrQLenPdf::31                  21379                       # What write queue length does an incoming req see
system.mem_ctrls.wrQLenPdf::32                  21375                       # What write queue length does an incoming req see
system.mem_ctrls.wrQLenPdf::33                     40                       # What write queue length does an incoming req see
system.mem_ctrls.wrQLenPdf::34                      3                       # What write queue length does an incoming req see
system.mem_ctrls.wrQLenPdf::35                      1                       # What write queue length does an incoming req see
system.mem_ctrls.wrQLenPdf::36                      0                       # What write queue length does an incoming req see
system.mem_ctrls.wrQLenPdf::37                      0                       # What write queue length does an incoming req see
system.mem_ctrls.wrQLenPdf::38                      0                       # What write queue length does an incoming req see
system.mem_ctrls.wrQLenPdf::39                      0                       # What write queue length does an incoming req see
system.mem_ctrls.wrQLenPdf::40                      0                       # What write queue length does an incoming req see
system.mem_ctrls.wrQLenPdf::41                      0                       # What write queue length does an incoming req see
system.mem_ctrls.wrQLenPdf::42                      0                       # What write queue length does an incoming req see
system.mem_ctrls.wrQLenPdf::43                      0                       # What write queue length does an incoming req see
system.mem_ctrls.wrQLenPdf::44                      0                       # What write queue length does an incoming req see
system.mem_ctrls.wrQLenPdf::45                      0                       # What write queue length does an incoming req see
system.mem_ctrls.wrQLenPdf::46                      0                       # What write queue length does an incoming req see
system.mem_ctrls.wrQLenPdf::47                      0                       # What write queue length does an incoming req see
system.mem_ctrls.wrQLenPdf::48                      0                       # What write queue length does an incoming req see
system.mem_ctrls.wrQLenPdf::49                      0                       # What write queue length does an incoming req see
system.mem_ctrls.wrQLenPdf::50                      0                       # What write queue length does an incoming req see
system.mem_ctrls.wrQLenPdf::51                      0                       # What write queue length does an incoming req see
system.mem_ctrls.wrQLenPdf::52                      0                       # What write queue length does an incoming req see
system.mem_ctrls.wrQLenPdf::53                      0                       # What write queue length does an incoming req see
system.mem_ctrls.wrQLenPdf::54                      0                       # What write queue length does an incoming req see
system.mem_ctrls.wrQLenPdf::55                      0                       # What write queue length does an incoming req see
system.mem_ctrls.wrQLenPdf::56                      0                       # What write queue length does an incoming req see
system.mem_ctrls.wrQLenPdf::57                      0                       # What write queue length does an incoming req see
system.mem_ctrls.wrQLenPdf::58                      0                       # What write queue length does an incoming req see
system.mem_ctrls.wrQLenPdf::59                      0                       # What write queue length does an incoming req see
system.mem_ctrls.wrQLenPdf::60                      0                       # What write queue length does an incoming req see
system.mem_ctrls.wrQLenPdf::61                      0                       # What write queue length does an incoming req see
system.mem_ctrls.wrQLenPdf::62                      0                       # What write queue length does an incoming req see
system.mem_ctrls.wrQLenPdf::63                      0                       # What write queue length does an incoming req see
system.mem_ctrls.bytesPerActivate::samples       560690                       # Bytes accessed per row activation
system.mem_ctrls.bytesPerActivate::mean    113.145503                       # Bytes accessed per row activation
system.mem_ctrls.bytesPerActivate::gmean    85.909256                       # Bytes accessed per row activation
system.mem_ctrls.bytesPerActivate::stdev   141.915328                       # Bytes accessed per row activation
system.mem_ctrls.bytesPerActivate::0-127       415694     74.14%     74.14% # Bytes accessed per row activation
system.mem_ctrls.bytesPerActivate::128-255       100706     17.96%     92.10% # Bytes accessed per row activation
system.mem_ctrls.bytesPerActivate::256-383        17394      3.10%     95.20% # Bytes accessed per row activation
system.mem_ctrls.bytesPerActivate::384-511         5833      1.04%     96.24% # Bytes accessed per row activation
system.mem_ctrls.bytesPerActivate::512-639        11271      2.01%     98.25% # Bytes accessed per row activation
system.mem_ctrls.bytesPerActivate::640-767          902      0.16%     98.41% # Bytes accessed per row activation
system.mem_ctrls.bytesPerActivate::768-895          805      0.14%     98.56% # Bytes accessed per row activation
system.mem_ctrls.bytesPerActivate::896-1023          487      0.09%     98.64% # Bytes accessed per row activation
system.mem_ctrls.bytesPerActivate::1024-1151         7598      1.36%    100.00% # Bytes accessed per row activation
system.mem_ctrls.bytesPerActivate::total       560690                       # Bytes accessed per row activation
system.mem_ctrls.rdPerTurnAround::samples        21375                       # Reads before turning the bus around for writes
system.mem_ctrls.rdPerTurnAround::mean      28.918596                       # Reads before turning the bus around for writes
system.mem_ctrls.rdPerTurnAround::stdev    200.220095                       # Reads before turning the bus around for writes
system.mem_ctrls.rdPerTurnAround::0-1023        21364     99.95%     99.95% # Reads before turning the bus around for writes
system.mem_ctrls.rdPerTurnAround::1024-2047            7      0.03%     99.98% # Reads before turning the bus around for writes
system.mem_ctrls.rdPerTurnAround::2048-3071            2      0.01%     99.99% # Reads before turning the bus around for writes
system.mem_ctrls.rdPerTurnAround::3072-4095            1      0.00%    100.00% # Reads before turning the bus around for writes
system.mem_ctrls.rdPerTurnAround::27648-28671            1      0.00%    100.00% # Reads before turning the bus around for writes
system.mem_ctrls.rdPerTurnAround::total         21375                       # Reads before turning the bus around for writes
system.mem_ctrls.wrPerTurnAround::samples        21375                       # Writes before turning the bus around for reads
system.mem_ctrls.wrPerTurnAround::mean      17.419602                       # Writes before turning the bus around for reads
system.mem_ctrls.wrPerTurnAround::gmean     17.389405                       # Writes before turning the bus around for reads
system.mem_ctrls.wrPerTurnAround::stdev      1.016556                       # Writes before turning the bus around for reads
system.mem_ctrls.wrPerTurnAround::16             6658     31.15%     31.15% # Writes before turning the bus around for reads
system.mem_ctrls.wrPerTurnAround::17              775      3.63%     34.77% # Writes before turning the bus around for reads
system.mem_ctrls.wrPerTurnAround::18            12351     57.78%     92.56% # Writes before turning the bus around for reads
system.mem_ctrls.wrPerTurnAround::19             1501      7.02%     99.58% # Writes before turning the bus around for reads
system.mem_ctrls.wrPerTurnAround::20               86      0.40%     99.98% # Writes before turning the bus around for reads
system.mem_ctrls.wrPerTurnAround::21                4      0.02%    100.00% # Writes before turning the bus around for reads
system.mem_ctrls.wrPerTurnAround::total         21375                       # Writes before turning the bus around for reads
system.mem_ctrls.totQLat                   9132038750                       # Total ticks spent queuing
system.mem_ctrls.totMemAccLat             20736395000                       # Total ticks spent from burst creation until serviced by the DRAM
system.mem_ctrls.totBusLat                 3094495000                       # Total ticks spent in databus transfers
system.mem_ctrls.avgQLat                     14755.30                       # Average queueing delay per DRAM burst
system.mem_ctrls.avgBusLat                    5000.00                       # Average bus latency per DRAM burst
system.mem_ctrls.avgMemAccLat                33505.30                       # Average memory access latency per DRAM burst
system.mem_ctrls.avgRdBW                        37.65                       # Average DRAM read bandwidth in MiByte/s
system.mem_ctrls.avgWrBW                        22.65                       # Average achieved write bandwidth in MiByte/s
system.mem_ctrls.avgRdBWSys                     37.72                       # Average system read bandwidth in MiByte/s
system.mem_ctrls.avgWrBWSys                     22.66                       # Average system write bandwidth in MiByte/s
system.mem_ctrls.peakBW                      12800.00                       # Theoretical peak bandwidth in MiByte/s
system.mem_ctrls.busUtil                         0.47                       # Data bus utilization in percentage
system.mem_ctrls.busUtilRead                     0.29                       # Data bus utilization in percentage for reads
system.mem_ctrls.busUtilWrite                    0.18                       # Data bus utilization in percentage for writes
system.mem_ctrls.avgRdQLen                       1.00                       # Average read queue length when enqueuing
system.mem_ctrls.avgWrQLen                      24.33                       # Average write queue length when enqueuing
system.mem_ctrls.readRowHits                   296429                       # Number of row buffer hits during reads
system.mem_ctrls.writeRowHits                  134124                       # Number of row buffer hits during writes
system.mem_ctrls.readRowHitRate                 47.90                       # Row buffer hit rate for reads
system.mem_ctrls.writeRowHitRate                36.02                       # Row buffer hit rate for writes
system.mem_ctrls.avgGap                    1059982.55                       # Average gap between requests
system.mem_ctrls.pageHitRate                    43.43                       # Row buffer hit rate, read and write combined
system.mem_ctrls_0.actEnergy               2094195600                       # Energy for activate commands per rank (pJ)
system.mem_ctrls_0.preEnergy               1142666250                       # Energy for precharge commands per rank (pJ)
system.mem_ctrls_0.readEnergy              2398500000                       # Energy for read commands per rank (pJ)
system.mem_ctrls_0.writeEnergy             1182360240                       # Energy for write commands per rank (pJ)
system.mem_ctrls_0.refreshEnergy          68705947440                       # Energy for refresh commands per rank (pJ)
system.mem_ctrls_0.actBackEnergy         205312814685                       # Energy for active background per rank (pJ)
system.mem_ctrls_0.preBackEnergy         451049940750                       # Energy for precharge background per rank (pJ)
system.mem_ctrls_0.totalEnergy           731886424965                       # Total energy per rank (pJ)
system.mem_ctrls_0.averagePower            695.765855                       # Core power per rank (mW)
system.mem_ctrls_0.memoryStateTime::IDLE 749157630000                       # Time in different power states
system.mem_ctrls_0.memoryStateTime::REF   35125740000                       # Time in different power states
system.mem_ctrls_0.memoryStateTime::PRE_PDN            0                       # Time in different power states
system.mem_ctrls_0.memoryStateTime::ACT  267631478750                       # Time in different power states
system.mem_ctrls_0.memoryStateTime::ACT_PDN            0                       # Time in different power states
system.mem_ctrls_1.actEnergy               2144620800                       # Energy for activate commands per rank (pJ)
system.mem_ctrls_1.preEnergy               1170180000                       # Energy for precharge commands per rank (pJ)
system.mem_ctrls_1.readEnergy              2428912200                       # Energy for read commands per rank (pJ)
system.mem_ctrls_1.writeEnergy             1230428880                       # Energy for write commands per rank (pJ)
system.mem_ctrls_1.refreshEnergy          68705947440                       # Energy for refresh commands per rank (pJ)
system.mem_ctrls_1.actBackEnergy         204981140520                       # Energy for active background per rank (pJ)
system.mem_ctrls_1.preBackEnergy         451340883000                       # Energy for precharge background per rank (pJ)
system.mem_ctrls_1.totalEnergy           732002112840                       # Total energy per rank (pJ)
system.mem_ctrls_1.averagePower            695.875834                       # Core power per rank (mW)
system.mem_ctrls_1.memoryStateTime::IDLE 749632963000                       # Time in different power states
system.mem_ctrls_1.memoryStateTime::REF   35125740000                       # Time in different power states
system.mem_ctrls_1.memoryStateTime::PRE_PDN            0                       # Time in different power states
system.mem_ctrls_1.memoryStateTime::ACT  267156145750                       # Time in different power states
system.mem_ctrls_1.memoryStateTime::ACT_PDN            0                       # Time in different power states
system.cpu_voltage_domain.voltage                   1                       # Voltage in Volts
system.cpu_clk_domain.clock                       500                       # Clock period in ticks
system.cpu.apic_clk_domain.clock                 8000                       # Clock period in ticks
system.cpu.workload.num_syscalls                   86                       # Number of system calls
system.cpu.numCycles                       2103840575                       # number of cpu cycles simulated
system.cpu.numWorkItemsStarted                      0                       # number of work items this cpu started
system.cpu.numWorkItemsCompleted                    0                       # number of work items this cpu completed
system.cpu.committedInsts                   500000001                       # Number of instructions committed
system.cpu.committedOps                     730450447                       # Number of ops (including micro ops) committed
system.cpu.num_int_alu_accesses             729688907                       # Number of integer alu accesses
system.cpu.num_fp_alu_accesses                    663                       # Number of float alu accesses
system.cpu.num_func_calls                     1453961                       # number of times a function call or return occured
system.cpu.num_conditional_control_insts     31770496                       # number of instructions that are conditional controls
system.cpu.num_int_insts                    729688907                       # number of integer instructions
system.cpu.num_fp_insts                           663                       # number of float instructions
system.cpu.num_int_register_reads          1698743410                       # number of times the integer registers were read
system.cpu.num_int_register_writes          621892952                       # number of times the integer registers were written
system.cpu.num_fp_register_reads                 1009                       # number of times the floating registers were read
system.cpu.num_fp_register_writes                 429                       # number of times the floating registers were written
system.cpu.num_cc_register_reads            180840558                       # number of times the CC registers were read
system.cpu.num_cc_register_writes           276245127                       # number of times the CC registers were written
system.cpu.num_mem_refs                     295985459                       # number of memory refs
system.cpu.num_load_insts                   225946750                       # Number of load instructions
system.cpu.num_store_insts                   70038709                       # Number of store instructions
system.cpu.num_idle_cycles                          0                       # Number of idle cycles
system.cpu.num_busy_cycles                 2103840575                       # Number of busy cycles
system.cpu.not_idle_fraction                        1                       # Percentage of non-idle cycles
system.cpu.idle_fraction                            0                       # Percentage of idle cycles
system.cpu.Branches                          37843296                       # Number of branches fetched
system.cpu.op_class::No_OpClass                 94739      0.01%      0.01% # Class of executed instruction
system.cpu.op_class::IntAlu                 434349070     59.46%     59.48% # Class of executed instruction
system.cpu.op_class::IntMult                    20662      0.00%     59.48% # Class of executed instruction
system.cpu.op_class::IntDiv                       119      0.00%     59.48% # Class of executed instruction
system.cpu.op_class::FloatAdd                     398      0.00%     59.48% # Class of executed instruction
system.cpu.op_class::FloatCmp                       0      0.00%     59.48% # Class of executed instruction
system.cpu.op_class::FloatCvt                       0      0.00%     59.48% # Class of executed instruction
system.cpu.op_class::FloatMult                      0      0.00%     59.48% # Class of executed instruction
system.cpu.op_class::FloatDiv                       0      0.00%     59.48% # Class of executed instruction
system.cpu.op_class::FloatSqrt                      0      0.00%     59.48% # Class of executed instruction
system.cpu.op_class::SimdAdd                        0      0.00%     59.48% # Class of executed instruction
system.cpu.op_class::SimdAddAcc                     0      0.00%     59.48% # Class of executed instruction
system.cpu.op_class::SimdAlu                        0      0.00%     59.48% # Class of executed instruction
system.cpu.op_class::SimdCmp                        0      0.00%     59.48% # Class of executed instruction
system.cpu.op_class::SimdCvt                        0      0.00%     59.48% # Class of executed instruction
system.cpu.op_class::SimdMisc                       0      0.00%     59.48% # Class of executed instruction
system.cpu.op_class::SimdMult                       0      0.00%     59.48% # Class of executed instruction
system.cpu.op_class::SimdMultAcc                    0      0.00%     59.48% # Class of executed instruction
system.cpu.op_class::SimdShift                      0      0.00%     59.48% # Class of executed instruction
system.cpu.op_class::SimdShiftAcc                   0      0.00%     59.48% # Class of executed instruction
system.cpu.op_class::SimdSqrt                       0      0.00%     59.48% # Class of executed instruction
system.cpu.op_class::SimdFloatAdd                   0      0.00%     59.48% # Class of executed instruction
system.cpu.op_class::SimdFloatAlu                   0      0.00%     59.48% # Class of executed instruction
system.cpu.op_class::SimdFloatCmp                   0      0.00%     59.48% # Class of executed instruction
system.cpu.op_class::SimdFloatCvt                   0      0.00%     59.48% # Class of executed instruction
system.cpu.op_class::SimdFloatDiv                   0      0.00%     59.48% # Class of executed instruction
system.cpu.op_class::SimdFloatMisc                  0      0.00%     59.48% # Class of executed instruction
system.cpu.op_class::SimdFloatMult                  0      0.00%     59.48% # Class of executed instruction
system.cpu.op_class::SimdFloatMultAcc               0      0.00%     59.48% # Class of executed instruction
system.cpu.op_class::SimdFloatSqrt                  0      0.00%     59.48% # Class of executed instruction
system.cpu.op_class::MemRead                225946750     30.93%     90.41% # Class of executed instruction
system.cpu.op_class::MemWrite                70038709      9.59%    100.00% # Class of executed instruction
system.cpu.op_class::IprAccess                      0      0.00%    100.00% # Class of executed instruction
system.cpu.op_class::InstPrefetch                   0      0.00%    100.00% # Class of executed instruction
system.cpu.op_class::total                  730450447                       # Class of executed instruction
system.cpu.dcache.tags.replacements           2042575                       # number of replacements
system.cpu.dcache.tags.tagsinuse          2042.146718                       # Cycle average of tags in use
system.cpu.dcache.tags.total_refs           293940844                       # Total number of references to valid blocks.
system.cpu.dcache.tags.sampled_refs           2044623                       # Sample count of references to valid blocks.
system.cpu.dcache.tags.avg_refs            143.762857                       # Average number of references to valid blocks.
system.cpu.dcache.tags.warmup_cycle        3525606500                       # Cycle when the warmup percentage was hit.
system.cpu.dcache.tags.occ_blocks::cpu.data  2042.146718                       # Average occupied blocks per requestor
system.cpu.dcache.tags.occ_percent::cpu.data     0.997142                       # Average percentage of cache occupancy
system.cpu.dcache.tags.occ_percent::total     0.997142                       # Average percentage of cache occupancy
system.cpu.dcache.tags.occ_task_id_blocks::1024         2048                       # Occupied blocks per task id
system.cpu.dcache.tags.age_task_id_blocks_1024::1            2                       # Occupied blocks per task id
system.cpu.dcache.tags.age_task_id_blocks_1024::2           16                       # Occupied blocks per task id
system.cpu.dcache.tags.age_task_id_blocks_1024::3         1420                       # Occupied blocks per task id
system.cpu.dcache.tags.age_task_id_blocks_1024::4          610                       # Occupied blocks per task id
system.cpu.dcache.tags.occ_task_id_percent::1024            1                       # Percentage of cache occupancy per task id
system.cpu.dcache.tags.tag_accesses         594015557                       # Number of tag accesses
system.cpu.dcache.tags.data_accesses        594015557                       # Number of data accesses
system.cpu.dcache.ReadReq_hits::cpu.data    224491119                       # number of ReadReq hits
system.cpu.dcache.ReadReq_hits::total       224491119                       # number of ReadReq hits
system.cpu.dcache.WriteReq_hits::cpu.data     69449725                       # number of WriteReq hits
system.cpu.dcache.WriteReq_hits::total       69449725                       # number of WriteReq hits
system.cpu.dcache.demand_hits::cpu.data     293940844                       # number of demand (read+write) hits
system.cpu.dcache.demand_hits::total        293940844                       # number of demand (read+write) hits
system.cpu.dcache.overall_hits::cpu.data    293940844                       # number of overall hits
system.cpu.dcache.overall_hits::total       293940844                       # number of overall hits
system.cpu.dcache.ReadReq_misses::cpu.data      1439254                       # number of ReadReq misses
system.cpu.dcache.ReadReq_misses::total       1439254                       # number of ReadReq misses
system.cpu.dcache.WriteReq_misses::cpu.data       588985                       # number of WriteReq misses
system.cpu.dcache.WriteReq_misses::total       588985                       # number of WriteReq misses
system.cpu.dcache.SoftPFReq_misses::cpu.data        16384                       # number of SoftPFReq misses
system.cpu.dcache.SoftPFReq_misses::total        16384                       # number of SoftPFReq misses
system.cpu.dcache.demand_misses::cpu.data      2028239                       # number of demand (read+write) misses
system.cpu.dcache.demand_misses::total        2028239                       # number of demand (read+write) misses
system.cpu.dcache.overall_misses::cpu.data      2044623                       # number of overall misses
system.cpu.dcache.overall_misses::total       2044623                       # number of overall misses
system.cpu.dcache.ReadReq_miss_latency::cpu.data  40053829000                       # number of ReadReq miss cycles
system.cpu.dcache.ReadReq_miss_latency::total  40053829000                       # number of ReadReq miss cycles
system.cpu.dcache.WriteReq_miss_latency::cpu.data  30325346500                       # number of WriteReq miss cycles
system.cpu.dcache.WriteReq_miss_latency::total  30325346500                       # number of WriteReq miss cycles
system.cpu.dcache.demand_miss_latency::cpu.data  70379175500                       # number of demand (read+write) miss cycles
system.cpu.dcache.demand_miss_latency::total  70379175500                       # number of demand (read+write) miss cycles
system.cpu.dcache.overall_miss_latency::cpu.data  70379175500                       # number of overall miss cycles
system.cpu.dcache.overall_miss_latency::total  70379175500                       # number of overall miss cycles
system.cpu.dcache.ReadReq_accesses::cpu.data    225930373                       # number of ReadReq accesses(hits+misses)
system.cpu.dcache.ReadReq_accesses::total    225930373                       # number of ReadReq accesses(hits+misses)
system.cpu.dcache.WriteReq_accesses::cpu.data     70038710                       # number of WriteReq accesses(hits+misses)
system.cpu.dcache.WriteReq_accesses::total     70038710                       # number of WriteReq accesses(hits+misses)
system.cpu.dcache.SoftPFReq_accesses::cpu.data        16384                       # number of SoftPFReq accesses(hits+misses)
system.cpu.dcache.SoftPFReq_accesses::total        16384                       # number of SoftPFReq accesses(hits+misses)
system.cpu.dcache.demand_accesses::cpu.data    295969083                       # number of demand (read+write) accesses
system.cpu.dcache.demand_accesses::total    295969083                       # number of demand (read+write) accesses
system.cpu.dcache.overall_accesses::cpu.data    295985467                       # number of overall (read+write) accesses
system.cpu.dcache.overall_accesses::total    295985467                       # number of overall (read+write) accesses
system.cpu.dcache.ReadReq_miss_rate::cpu.data     0.006370                       # miss rate for ReadReq accesses
system.cpu.dcache.ReadReq_miss_rate::total     0.006370                       # miss rate for ReadReq accesses
system.cpu.dcache.WriteReq_miss_rate::cpu.data     0.008409                       # miss rate for WriteReq accesses
system.cpu.dcache.WriteReq_miss_rate::total     0.008409                       # miss rate for WriteReq accesses
system.cpu.dcache.SoftPFReq_miss_rate::cpu.data            1                       # miss rate for SoftPFReq accesses
system.cpu.dcache.SoftPFReq_miss_rate::total            1                       # miss rate for SoftPFReq accesses
system.cpu.dcache.demand_miss_rate::cpu.data     0.006853                       # miss rate for demand accesses
system.cpu.dcache.demand_miss_rate::total     0.006853                       # miss rate for demand accesses
system.cpu.dcache.overall_miss_rate::cpu.data     0.006908                       # miss rate for overall accesses
system.cpu.dcache.overall_miss_rate::total     0.006908                       # miss rate for overall accesses
system.cpu.dcache.ReadReq_avg_miss_latency::cpu.data 27829.576294                       # average ReadReq miss latency
system.cpu.dcache.ReadReq_avg_miss_latency::total 27829.576294                       # average ReadReq miss latency
system.cpu.dcache.WriteReq_avg_miss_latency::cpu.data 51487.468272                       # average WriteReq miss latency
system.cpu.dcache.WriteReq_avg_miss_latency::total 51487.468272                       # average WriteReq miss latency
system.cpu.dcache.demand_avg_miss_latency::cpu.data 34699.646097                       # average overall miss latency
system.cpu.dcache.demand_avg_miss_latency::total 34699.646097                       # average overall miss latency
system.cpu.dcache.overall_avg_miss_latency::cpu.data 34421.590435                       # average overall miss latency
system.cpu.dcache.overall_avg_miss_latency::total 34421.590435                       # average overall miss latency
system.cpu.dcache.blocked_cycles::no_mshrs       234122                       # number of cycles access was blocked
system.cpu.dcache.blocked_cycles::no_targets            0                       # number of cycles access was blocked
system.cpu.dcache.blocked::no_mshrs              5605                       # number of cycles access was blocked
system.cpu.dcache.blocked::no_targets               0                       # number of cycles access was blocked
system.cpu.dcache.avg_blocked_cycles::no_mshrs    41.770205                       # average number of cycles each access was blocked
system.cpu.dcache.avg_blocked_cycles::no_targets          nan                       # average number of cycles each access was blocked
system.cpu.dcache.fast_writes                       0                       # number of fast writes performed
system.cpu.dcache.cache_copies                      0                       # number of cache copies performed
system.cpu.dcache.writebacks::writebacks       956539                       # number of writebacks
system.cpu.dcache.writebacks::total            956539                       # number of writebacks
system.cpu.dcache.ReadReq_mshr_misses::cpu.data      1439254                       # number of ReadReq MSHR misses
system.cpu.dcache.ReadReq_mshr_misses::total      1439254                       # number of ReadReq MSHR misses
system.cpu.dcache.WriteReq_mshr_misses::cpu.data       588985                       # number of WriteReq MSHR misses
system.cpu.dcache.WriteReq_mshr_misses::total       588985                       # number of WriteReq MSHR misses
system.cpu.dcache.SoftPFReq_mshr_misses::cpu.data        16384                       # number of SoftPFReq MSHR misses
system.cpu.dcache.SoftPFReq_mshr_misses::total        16384                       # number of SoftPFReq MSHR misses
system.cpu.dcache.demand_mshr_misses::cpu.data      2028239                       # number of demand (read+write) MSHR misses
system.cpu.dcache.demand_mshr_misses::total      2028239                       # number of demand (read+write) MSHR misses
system.cpu.dcache.overall_mshr_misses::cpu.data      2044623                       # number of overall MSHR misses
system.cpu.dcache.overall_mshr_misses::total      2044623                       # number of overall MSHR misses
system.cpu.dcache.ReadReq_mshr_miss_latency::cpu.data  38614575000                       # number of ReadReq MSHR miss cycles
system.cpu.dcache.ReadReq_mshr_miss_latency::total  38614575000                       # number of ReadReq MSHR miss cycles
system.cpu.dcache.WriteReq_mshr_miss_latency::cpu.data  29736361500                       # number of WriteReq MSHR miss cycles
system.cpu.dcache.WriteReq_mshr_miss_latency::total  29736361500                       # number of WriteReq MSHR miss cycles
system.cpu.dcache.SoftPFReq_mshr_miss_latency::cpu.data   1289947938                       # number of SoftPFReq MSHR miss cycles
system.cpu.dcache.SoftPFReq_mshr_miss_latency::total   1289947938                       # number of SoftPFReq MSHR miss cycles
system.cpu.dcache.demand_mshr_miss_latency::cpu.data  68350936500                       # number of demand (read+write) MSHR miss cycles
system.cpu.dcache.demand_mshr_miss_latency::total  68350936500                       # number of demand (read+write) MSHR miss cycles
system.cpu.dcache.overall_mshr_miss_latency::cpu.data  69640884438                       # number of overall MSHR miss cycles
system.cpu.dcache.overall_mshr_miss_latency::total  69640884438                       # number of overall MSHR miss cycles
system.cpu.dcache.ReadReq_mshr_miss_rate::cpu.data     0.006370                       # mshr miss rate for ReadReq accesses
system.cpu.dcache.ReadReq_mshr_miss_rate::total     0.006370                       # mshr miss rate for ReadReq accesses
system.cpu.dcache.WriteReq_mshr_miss_rate::cpu.data     0.008409                       # mshr miss rate for WriteReq accesses
system.cpu.dcache.WriteReq_mshr_miss_rate::total     0.008409                       # mshr miss rate for WriteReq accesses
system.cpu.dcache.SoftPFReq_mshr_miss_rate::cpu.data            1                       # mshr miss rate for SoftPFReq accesses
system.cpu.dcache.SoftPFReq_mshr_miss_rate::total            1                       # mshr miss rate for SoftPFReq accesses
system.cpu.dcache.demand_mshr_miss_rate::cpu.data     0.006853                       # mshr miss rate for demand accesses
system.cpu.dcache.demand_mshr_miss_rate::total     0.006853                       # mshr miss rate for demand accesses
system.cpu.dcache.overall_mshr_miss_rate::cpu.data     0.006908                       # mshr miss rate for overall accesses
system.cpu.dcache.overall_mshr_miss_rate::total     0.006908                       # mshr miss rate for overall accesses
system.cpu.dcache.ReadReq_avg_mshr_miss_latency::cpu.data 26829.576294                       # average ReadReq mshr miss latency
system.cpu.dcache.ReadReq_avg_mshr_miss_latency::total 26829.576294                       # average ReadReq mshr miss latency
system.cpu.dcache.WriteReq_avg_mshr_miss_latency::cpu.data 50487.468272                       # average WriteReq mshr miss latency
system.cpu.dcache.WriteReq_avg_mshr_miss_latency::total 50487.468272                       # average WriteReq mshr miss latency
system.cpu.dcache.SoftPFReq_avg_mshr_miss_latency::cpu.data 78732.173950                       # average SoftPFReq mshr miss latency
system.cpu.dcache.SoftPFReq_avg_mshr_miss_latency::total 78732.173950                       # average SoftPFReq mshr miss latency
system.cpu.dcache.demand_avg_mshr_miss_latency::cpu.data 33699.646097                       # average overall mshr miss latency
system.cpu.dcache.demand_avg_mshr_miss_latency::total 33699.646097                       # average overall mshr miss latency
system.cpu.dcache.overall_avg_mshr_miss_latency::cpu.data 34060.501343                       # average overall mshr miss latency
system.cpu.dcache.overall_avg_mshr_miss_latency::total 34060.501343                       # average overall mshr miss latency
system.cpu.dcache.no_allocate_misses                0                       # Number of misses that were no-allocate
system.cpu.dtb_walker_cache.tags.replacements            0                       # number of replacements
system.cpu.dtb_walker_cache.tags.tagsinuse            0                       # Cycle average of tags in use
system.cpu.dtb_walker_cache.tags.total_refs            0                       # Total number of references to valid blocks.
system.cpu.dtb_walker_cache.tags.sampled_refs            0                       # Sample count of references to valid blocks.
system.cpu.dtb_walker_cache.tags.avg_refs          nan                       # Average number of references to valid blocks.
system.cpu.dtb_walker_cache.tags.warmup_cycle            0                       # Cycle when the warmup percentage was hit.
system.cpu.dtb_walker_cache.tags.tag_accesses            0                       # Number of tag accesses
system.cpu.dtb_walker_cache.tags.data_accesses            0                       # Number of data accesses
system.cpu.dtb_walker_cache.blocked_cycles::no_mshrs            0                       # number of cycles access was blocked
system.cpu.dtb_walker_cache.blocked_cycles::no_targets            0                       # number of cycles access was blocked
system.cpu.dtb_walker_cache.blocked::no_mshrs            0                       # number of cycles access was blocked
system.cpu.dtb_walker_cache.blocked::no_targets            0                       # number of cycles access was blocked
system.cpu.dtb_walker_cache.avg_blocked_cycles::no_mshrs          nan                       # average number of cycles each access was blocked
system.cpu.dtb_walker_cache.avg_blocked_cycles::no_targets          nan                       # average number of cycles each access was blocked
system.cpu.dtb_walker_cache.fast_writes             0                       # number of fast writes performed
system.cpu.dtb_walker_cache.cache_copies            0                       # number of cache copies performed
system.cpu.dtb_walker_cache.no_allocate_misses            0                       # Number of misses that were no-allocate
system.cpu.icache.tags.replacements                45                       # number of replacements
system.cpu.icache.tags.tagsinuse           663.949220                       # Cycle average of tags in use
system.cpu.icache.tags.total_refs           687396869                       # Total number of references to valid blocks.
system.cpu.icache.tags.sampled_refs               994                       # Sample count of references to valid blocks.
system.cpu.icache.tags.avg_refs          691546.145875                       # Average number of references to valid blocks.
system.cpu.icache.tags.warmup_cycle                 0                       # Cycle when the warmup percentage was hit.
system.cpu.icache.tags.occ_blocks::cpu.inst   663.949220                       # Average occupied blocks per requestor
system.cpu.icache.tags.occ_percent::cpu.inst     0.324194                       # Average percentage of cache occupancy
system.cpu.icache.tags.occ_percent::total     0.324194                       # Average percentage of cache occupancy
system.cpu.icache.tags.occ_task_id_blocks::1024          949                       # Occupied blocks per task id
system.cpu.icache.tags.age_task_id_blocks_1024::1            7                       # Occupied blocks per task id
system.cpu.icache.tags.age_task_id_blocks_1024::3           25                       # Occupied blocks per task id
system.cpu.icache.tags.age_task_id_blocks_1024::4          917                       # Occupied blocks per task id
system.cpu.icache.tags.occ_task_id_percent::1024     0.463379                       # Percentage of cache occupancy per task id
system.cpu.icache.tags.tag_accesses        1374796720                       # Number of tag accesses
system.cpu.icache.tags.data_accesses       1374796720                       # Number of data accesses
system.cpu.icache.ReadReq_hits::cpu.inst    687396869                       # number of ReadReq hits
system.cpu.icache.ReadReq_hits::total       687396869                       # number of ReadReq hits
system.cpu.icache.demand_hits::cpu.inst     687396869                       # number of demand (read+write) hits
system.cpu.icache.demand_hits::total        687396869                       # number of demand (read+write) hits
system.cpu.icache.overall_hits::cpu.inst    687396869                       # number of overall hits
system.cpu.icache.overall_hits::total       687396869                       # number of overall hits
system.cpu.icache.ReadReq_misses::cpu.inst          994                       # number of ReadReq misses
system.cpu.icache.ReadReq_misses::total           994                       # number of ReadReq misses
system.cpu.icache.demand_misses::cpu.inst          994                       # number of demand (read+write) misses
system.cpu.icache.demand_misses::total            994                       # number of demand (read+write) misses
system.cpu.icache.overall_misses::cpu.inst          994                       # number of overall misses
system.cpu.icache.overall_misses::total           994                       # number of overall misses
system.cpu.icache.ReadReq_miss_latency::cpu.inst     78067000                       # number of ReadReq miss cycles
system.cpu.icache.ReadReq_miss_latency::total     78067000                       # number of ReadReq miss cycles
system.cpu.icache.demand_miss_latency::cpu.inst     78067000                       # number of demand (read+write) miss cycles
system.cpu.icache.demand_miss_latency::total     78067000                       # number of demand (read+write) miss cycles
system.cpu.icache.overall_miss_latency::cpu.inst     78067000                       # number of overall miss cycles
system.cpu.icache.overall_miss_latency::total     78067000                       # number of overall miss cycles
system.cpu.icache.ReadReq_accesses::cpu.inst    687397863                       # number of ReadReq accesses(hits+misses)
system.cpu.icache.ReadReq_accesses::total    687397863                       # number of ReadReq accesses(hits+misses)
system.cpu.icache.demand_accesses::cpu.inst    687397863                       # number of demand (read+write) accesses
system.cpu.icache.demand_accesses::total    687397863                       # number of demand (read+write) accesses
system.cpu.icache.overall_accesses::cpu.inst    687397863                       # number of overall (read+write) accesses
system.cpu.icache.overall_accesses::total    687397863                       # number of overall (read+write) accesses
system.cpu.icache.ReadReq_miss_rate::cpu.inst     0.000001                       # miss rate for ReadReq accesses
system.cpu.icache.ReadReq_miss_rate::total     0.000001                       # miss rate for ReadReq accesses
system.cpu.icache.demand_miss_rate::cpu.inst     0.000001                       # miss rate for demand accesses
system.cpu.icache.demand_miss_rate::total     0.000001                       # miss rate for demand accesses
system.cpu.icache.overall_miss_rate::cpu.inst     0.000001                       # miss rate for overall accesses
system.cpu.icache.overall_miss_rate::total     0.000001                       # miss rate for overall accesses
system.cpu.icache.ReadReq_avg_miss_latency::cpu.inst 78538.229376                       # average ReadReq miss latency
system.cpu.icache.ReadReq_avg_miss_latency::total 78538.229376                       # average ReadReq miss latency
system.cpu.icache.demand_avg_miss_latency::cpu.inst 78538.229376                       # average overall miss latency
system.cpu.icache.demand_avg_miss_latency::total 78538.229376                       # average overall miss latency
system.cpu.icache.overall_avg_miss_latency::cpu.inst 78538.229376                       # average overall miss latency
system.cpu.icache.overall_avg_miss_latency::total 78538.229376                       # average overall miss latency
system.cpu.icache.blocked_cycles::no_mshrs            0                       # number of cycles access was blocked
system.cpu.icache.blocked_cycles::no_targets            0                       # number of cycles access was blocked
system.cpu.icache.blocked::no_mshrs                 0                       # number of cycles access was blocked
system.cpu.icache.blocked::no_targets               0                       # number of cycles access was blocked
system.cpu.icache.avg_blocked_cycles::no_mshrs          nan                       # average number of cycles each access was blocked
system.cpu.icache.avg_blocked_cycles::no_targets          nan                       # average number of cycles each access was blocked
system.cpu.icache.fast_writes                       0                       # number of fast writes performed
system.cpu.icache.cache_copies                      0                       # number of cache copies performed
system.cpu.icache.writebacks::writebacks           45                       # number of writebacks
system.cpu.icache.writebacks::total                45                       # number of writebacks
system.cpu.icache.ReadReq_mshr_misses::cpu.inst          994                       # number of ReadReq MSHR misses
system.cpu.icache.ReadReq_mshr_misses::total          994                       # number of ReadReq MSHR misses
system.cpu.icache.demand_mshr_misses::cpu.inst          994                       # number of demand (read+write) MSHR misses
system.cpu.icache.demand_mshr_misses::total          994                       # number of demand (read+write) MSHR misses
system.cpu.icache.overall_mshr_misses::cpu.inst          994                       # number of overall MSHR misses
system.cpu.icache.overall_mshr_misses::total          994                       # number of overall MSHR misses
system.cpu.icache.ReadReq_mshr_miss_latency::cpu.inst     77073000                       # number of ReadReq MSHR miss cycles
system.cpu.icache.ReadReq_mshr_miss_latency::total     77073000                       # number of ReadReq MSHR miss cycles
system.cpu.icache.demand_mshr_miss_latency::cpu.inst     77073000                       # number of demand (read+write) MSHR miss cycles
system.cpu.icache.demand_mshr_miss_latency::total     77073000                       # number of demand (read+write) MSHR miss cycles
system.cpu.icache.overall_mshr_miss_latency::cpu.inst     77073000                       # number of overall MSHR miss cycles
system.cpu.icache.overall_mshr_miss_latency::total     77073000                       # number of overall MSHR miss cycles
system.cpu.icache.ReadReq_mshr_miss_rate::cpu.inst     0.000001                       # mshr miss rate for ReadReq accesses
system.cpu.icache.ReadReq_mshr_miss_rate::total     0.000001                       # mshr miss rate for ReadReq accesses
system.cpu.icache.demand_mshr_miss_rate::cpu.inst     0.000001                       # mshr miss rate for demand accesses
system.cpu.icache.demand_mshr_miss_rate::total     0.000001                       # mshr miss rate for demand accesses
system.cpu.icache.overall_mshr_miss_rate::cpu.inst     0.000001                       # mshr miss rate for overall accesses
system.cpu.icache.overall_mshr_miss_rate::total     0.000001                       # mshr miss rate for overall accesses
system.cpu.icache.ReadReq_avg_mshr_miss_latency::cpu.inst 77538.229376                       # average ReadReq mshr miss latency
system.cpu.icache.ReadReq_avg_mshr_miss_latency::total 77538.229376                       # average ReadReq mshr miss latency
system.cpu.icache.demand_avg_mshr_miss_latency::cpu.inst 77538.229376                       # average overall mshr miss latency
system.cpu.icache.demand_avg_mshr_miss_latency::total 77538.229376                       # average overall mshr miss latency
system.cpu.icache.overall_avg_mshr_miss_latency::cpu.inst 77538.229376                       # average overall mshr miss latency
system.cpu.icache.overall_avg_mshr_miss_latency::total 77538.229376                       # average overall mshr miss latency
system.cpu.icache.no_allocate_misses                0                       # Number of misses that were no-allocate
system.cpu.itb_walker_cache.tags.replacements            0                       # number of replacements
system.cpu.itb_walker_cache.tags.tagsinuse            0                       # Cycle average of tags in use
system.cpu.itb_walker_cache.tags.total_refs            0                       # Total number of references to valid blocks.
system.cpu.itb_walker_cache.tags.sampled_refs            0                       # Sample count of references to valid blocks.
system.cpu.itb_walker_cache.tags.avg_refs          nan                       # Average number of references to valid blocks.
system.cpu.itb_walker_cache.tags.warmup_cycle            0                       # Cycle when the warmup percentage was hit.
system.cpu.itb_walker_cache.tags.tag_accesses            0                       # Number of tag accesses
system.cpu.itb_walker_cache.tags.data_accesses            0                       # Number of data accesses
system.cpu.itb_walker_cache.blocked_cycles::no_mshrs            0                       # number of cycles access was blocked
system.cpu.itb_walker_cache.blocked_cycles::no_targets            0                       # number of cycles access was blocked
system.cpu.itb_walker_cache.blocked::no_mshrs            0                       # number of cycles access was blocked
system.cpu.itb_walker_cache.blocked::no_targets            0                       # number of cycles access was blocked
system.cpu.itb_walker_cache.avg_blocked_cycles::no_mshrs          nan                       # average number of cycles each access was blocked
system.cpu.itb_walker_cache.avg_blocked_cycles::no_targets          nan                       # average number of cycles each access was blocked
system.cpu.itb_walker_cache.fast_writes             0                       # number of fast writes performed
system.cpu.itb_walker_cache.cache_copies            0                       # number of cache copies performed
system.cpu.itb_walker_cache.no_allocate_misses            0                       # Number of misses that were no-allocate
system.l2.tags.replacements                    603409                       # number of replacements
system.l2.tags.tagsinuse                 16182.048432                       # Cycle average of tags in use
system.l2.tags.total_refs                     2879325                       # Total number of references to valid blocks.
system.l2.tags.sampled_refs                    619613                       # Sample count of references to valid blocks.
system.l2.tags.avg_refs                      4.646973                       # Average number of references to valid blocks.
system.l2.tags.warmup_cycle                3963152000                       # Cycle when the warmup percentage was hit.
system.l2.tags.occ_blocks::writebacks     6069.138367                       # Average occupied blocks per requestor
system.l2.tags.occ_blocks::cpu.inst         46.911329                       # Average occupied blocks per requestor
system.l2.tags.occ_blocks::cpu.data      10065.998736                       # Average occupied blocks per requestor
system.l2.tags.occ_percent::writebacks       0.370431                       # Average percentage of cache occupancy
system.l2.tags.occ_percent::cpu.inst         0.002863                       # Average percentage of cache occupancy
system.l2.tags.occ_percent::cpu.data         0.614380                       # Average percentage of cache occupancy
system.l2.tags.occ_percent::total            0.987674                       # Average percentage of cache occupancy
system.l2.tags.occ_task_id_blocks::1024         16204                       # Occupied blocks per task id
system.l2.tags.age_task_id_blocks_1024::1            9                       # Occupied blocks per task id
system.l2.tags.age_task_id_blocks_1024::2           11                       # Occupied blocks per task id
system.l2.tags.age_task_id_blocks_1024::3           40                       # Occupied blocks per task id
system.l2.tags.age_task_id_blocks_1024::4        16144                       # Occupied blocks per task id
system.l2.tags.occ_task_id_percent::1024     0.989014                       # Percentage of cache occupancy per task id
system.l2.tags.tag_accesses                 132032150                       # Number of tag accesses
system.l2.tags.data_accesses                132032150                       # Number of data accesses
system.l2.WritebackDirty_hits::writebacks       956539                       # number of WritebackDirty hits
system.l2.WritebackDirty_hits::total           956539                       # number of WritebackDirty hits
system.l2.WritebackClean_hits::writebacks           45                       # number of WritebackClean hits
system.l2.WritebackClean_hits::total               45                       # number of WritebackClean hits
system.l2.ReadExReq_hits::cpu.data             283813                       # number of ReadExReq hits
system.l2.ReadExReq_hits::total                283813                       # number of ReadExReq hits
system.l2.ReadCleanReq_hits::cpu.inst               1                       # number of ReadCleanReq hits
system.l2.ReadCleanReq_hits::total                  1                       # number of ReadCleanReq hits
system.l2.ReadSharedReq_hits::cpu.data        1141804                       # number of ReadSharedReq hits
system.l2.ReadSharedReq_hits::total           1141804                       # number of ReadSharedReq hits
system.l2.demand_hits::cpu.inst                     1                       # number of demand (read+write) hits
system.l2.demand_hits::cpu.data               1425617                       # number of demand (read+write) hits
system.l2.demand_hits::total                  1425618                       # number of demand (read+write) hits
system.l2.overall_hits::cpu.inst                    1                       # number of overall hits
system.l2.overall_hits::cpu.data              1425617                       # number of overall hits
system.l2.overall_hits::total                 1425618                       # number of overall hits
system.l2.ReadExReq_misses::cpu.data           305172                       # number of ReadExReq misses
system.l2.ReadExReq_misses::total              305172                       # number of ReadExReq misses
system.l2.ReadCleanReq_misses::cpu.inst           993                       # number of ReadCleanReq misses
system.l2.ReadCleanReq_misses::total              993                       # number of ReadCleanReq misses
system.l2.ReadSharedReq_misses::cpu.data       313834                       # number of ReadSharedReq misses
system.l2.ReadSharedReq_misses::total          313834                       # number of ReadSharedReq misses
system.l2.demand_misses::cpu.inst                 993                       # number of demand (read+write) misses
system.l2.demand_misses::cpu.data              619006                       # number of demand (read+write) misses
system.l2.demand_misses::total                 619999                       # number of demand (read+write) misses
system.l2.overall_misses::cpu.inst                993                       # number of overall misses
system.l2.overall_misses::cpu.data             619006                       # number of overall misses
system.l2.overall_misses::total                619999                       # number of overall misses
system.l2.ReadExReq_miss_latency::cpu.data  25872846500                       # number of ReadExReq miss cycles
system.l2.ReadExReq_miss_latency::total   25872846500                       # number of ReadExReq miss cycles
system.l2.ReadCleanReq_miss_latency::cpu.inst     75570000                       # number of ReadCleanReq miss cycles
system.l2.ReadCleanReq_miss_latency::total     75570000                       # number of ReadCleanReq miss cycles
system.l2.ReadSharedReq_miss_latency::cpu.data  25732009000                       # number of ReadSharedReq miss cycles
system.l2.ReadSharedReq_miss_latency::total  25732009000                       # number of ReadSharedReq miss cycles
system.l2.demand_miss_latency::cpu.inst      75570000                       # number of demand (read+write) miss cycles
system.l2.demand_miss_latency::cpu.data   51604855500                       # number of demand (read+write) miss cycles
system.l2.demand_miss_latency::total      51680425500                       # number of demand (read+write) miss cycles
system.l2.overall_miss_latency::cpu.inst     75570000                       # number of overall miss cycles
system.l2.overall_miss_latency::cpu.data  51604855500                       # number of overall miss cycles
system.l2.overall_miss_latency::total     51680425500                       # number of overall miss cycles
system.l2.WritebackDirty_accesses::writebacks       956539                       # number of WritebackDirty accesses(hits+misses)
system.l2.WritebackDirty_accesses::total       956539                       # number of WritebackDirty accesses(hits+misses)
system.l2.WritebackClean_accesses::writebacks           45                       # number of WritebackClean accesses(hits+misses)
system.l2.WritebackClean_accesses::total           45                       # number of WritebackClean accesses(hits+misses)
system.l2.ReadExReq_accesses::cpu.data         588985                       # number of ReadExReq accesses(hits+misses)
system.l2.ReadExReq_accesses::total            588985                       # number of ReadExReq accesses(hits+misses)
system.l2.ReadCleanReq_accesses::cpu.inst          994                       # number of ReadCleanReq accesses(hits+misses)
system.l2.ReadCleanReq_accesses::total            994                       # number of ReadCleanReq accesses(hits+misses)
system.l2.ReadSharedReq_accesses::cpu.data      1455638                       # number of ReadSharedReq accesses(hits+misses)
system.l2.ReadSharedReq_accesses::total       1455638                       # number of ReadSharedReq accesses(hits+misses)
system.l2.demand_accesses::cpu.inst               994                       # number of demand (read+write) accesses
system.l2.demand_accesses::cpu.data           2044623                       # number of demand (read+write) accesses
system.l2.demand_accesses::total              2045617                       # number of demand (read+write) accesses
system.l2.overall_accesses::cpu.inst              994                       # number of overall (read+write) accesses
system.l2.overall_accesses::cpu.data          2044623                       # number of overall (read+write) accesses
system.l2.overall_accesses::total             2045617                       # number of overall (read+write) accesses
system.l2.ReadExReq_miss_rate::cpu.data      0.518132                       # miss rate for ReadExReq accesses
system.l2.ReadExReq_miss_rate::total         0.518132                       # miss rate for ReadExReq accesses
system.l2.ReadCleanReq_miss_rate::cpu.inst     0.998994                       # miss rate for ReadCleanReq accesses
system.l2.ReadCleanReq_miss_rate::total      0.998994                       # miss rate for ReadCleanReq accesses
system.l2.ReadSharedReq_miss_rate::cpu.data     0.215599                       # miss rate for ReadSharedReq accesses
system.l2.ReadSharedReq_miss_rate::total     0.215599                       # miss rate for ReadSharedReq accesses
system.l2.demand_miss_rate::cpu.inst         0.998994                       # miss rate for demand accesses
system.l2.demand_miss_rate::cpu.data         0.302748                       # miss rate for demand accesses
system.l2.demand_miss_rate::total            0.303087                       # miss rate for demand accesses
system.l2.overall_miss_rate::cpu.inst        0.998994                       # miss rate for overall accesses
system.l2.overall_miss_rate::cpu.data        0.302748                       # miss rate for overall accesses
system.l2.overall_miss_rate::total           0.303087                       # miss rate for overall accesses
system.l2.ReadExReq_avg_miss_latency::cpu.data 84781.193884                       # average ReadExReq miss latency
system.l2.ReadExReq_avg_miss_latency::total 84781.193884                       # average ReadExReq miss latency
system.l2.ReadCleanReq_avg_miss_latency::cpu.inst 76102.719033                       # average ReadCleanReq miss latency
system.l2.ReadCleanReq_avg_miss_latency::total 76102.719033                       # average ReadCleanReq miss latency
system.l2.ReadSharedReq_avg_miss_latency::cpu.data 81992.419559                       # average ReadSharedReq miss latency
system.l2.ReadSharedReq_avg_miss_latency::total 81992.419559                       # average ReadSharedReq miss latency
system.l2.demand_avg_miss_latency::cpu.inst 76102.719033                       # average overall miss latency
system.l2.demand_avg_miss_latency::cpu.data 83367.294501                       # average overall miss latency
system.l2.demand_avg_miss_latency::total 83355.659445                       # average overall miss latency
system.l2.overall_avg_miss_latency::cpu.inst 76102.719033                       # average overall miss latency
system.l2.overall_avg_miss_latency::cpu.data 83367.294501                       # average overall miss latency
system.l2.overall_avg_miss_latency::total 83355.659445                       # average overall miss latency
system.l2.blocked_cycles::no_mshrs                  0                       # number of cycles access was blocked
system.l2.blocked_cycles::no_targets                0                       # number of cycles access was blocked
system.l2.blocked::no_mshrs                         0                       # number of cycles access was blocked
system.l2.blocked::no_targets                       0                       # number of cycles access was blocked
system.l2.avg_blocked_cycles::no_mshrs            nan                       # average number of cycles each access was blocked
system.l2.avg_blocked_cycles::no_targets          nan                       # average number of cycles each access was blocked
system.l2.fast_writes                               0                       # number of fast writes performed
system.l2.cache_copies                              0                       # number of cache copies performed
system.l2.writebacks::writebacks               372364                       # number of writebacks
system.l2.writebacks::total                    372364                       # number of writebacks
system.l2.CleanEvict_mshr_misses::writebacks           18                       # number of CleanEvict MSHR misses
system.l2.CleanEvict_mshr_misses::total            18                       # number of CleanEvict MSHR misses
system.l2.ReadExReq_mshr_misses::cpu.data       305172                       # number of ReadExReq MSHR misses
system.l2.ReadExReq_mshr_misses::total         305172                       # number of ReadExReq MSHR misses
system.l2.ReadCleanReq_mshr_misses::cpu.inst          993                       # number of ReadCleanReq MSHR misses
system.l2.ReadCleanReq_mshr_misses::total          993                       # number of ReadCleanReq MSHR misses
system.l2.ReadSharedReq_mshr_misses::cpu.data       313834                       # number of ReadSharedReq MSHR misses
system.l2.ReadSharedReq_mshr_misses::total       313834                       # number of ReadSharedReq MSHR misses
system.l2.demand_mshr_misses::cpu.inst            993                       # number of demand (read+write) MSHR misses
system.l2.demand_mshr_misses::cpu.data         619006                       # number of demand (read+write) MSHR misses
system.l2.demand_mshr_misses::total            619999                       # number of demand (read+write) MSHR misses
system.l2.overall_mshr_misses::cpu.inst           993                       # number of overall MSHR misses
system.l2.overall_mshr_misses::cpu.data        619006                       # number of overall MSHR misses
system.l2.overall_mshr_misses::total           619999                       # number of overall MSHR misses
system.l2.ReadExReq_mshr_miss_latency::cpu.data  22821126500                       # number of ReadExReq MSHR miss cycles
system.l2.ReadExReq_mshr_miss_latency::total  22821126500                       # number of ReadExReq MSHR miss cycles
system.l2.ReadCleanReq_mshr_miss_latency::cpu.inst     65640000                       # number of ReadCleanReq MSHR miss cycles
system.l2.ReadCleanReq_mshr_miss_latency::total     65640000                       # number of ReadCleanReq MSHR miss cycles
system.l2.ReadSharedReq_mshr_miss_latency::cpu.data  22593669000                       # number of ReadSharedReq MSHR miss cycles
system.l2.ReadSharedReq_mshr_miss_latency::total  22593669000                       # number of ReadSharedReq MSHR miss cycles
system.l2.demand_mshr_miss_latency::cpu.inst     65640000                       # number of demand (read+write) MSHR miss cycles
system.l2.demand_mshr_miss_latency::cpu.data  45414795500                       # number of demand (read+write) MSHR miss cycles
system.l2.demand_mshr_miss_latency::total  45480435500                       # number of demand (read+write) MSHR miss cycles
system.l2.overall_mshr_miss_latency::cpu.inst     65640000                       # number of overall MSHR miss cycles
system.l2.overall_mshr_miss_latency::cpu.data  45414795500                       # number of overall MSHR miss cycles
system.l2.overall_mshr_miss_latency::total  45480435500                       # number of overall MSHR miss cycles
system.l2.CleanEvict_mshr_miss_rate::writebacks          inf                       # mshr miss rate for CleanEvict accesses
system.l2.CleanEvict_mshr_miss_rate::total          inf                       # mshr miss rate for CleanEvict accesses
system.l2.ReadExReq_mshr_miss_rate::cpu.data     0.518132                       # mshr miss rate for ReadExReq accesses
system.l2.ReadExReq_mshr_miss_rate::total     0.518132                       # mshr miss rate for ReadExReq accesses
system.l2.ReadCleanReq_mshr_miss_rate::cpu.inst     0.998994                       # mshr miss rate for ReadCleanReq accesses
system.l2.ReadCleanReq_mshr_miss_rate::total     0.998994                       # mshr miss rate for ReadCleanReq accesses
system.l2.ReadSharedReq_mshr_miss_rate::cpu.data     0.215599                       # mshr miss rate for ReadSharedReq accesses
system.l2.ReadSharedReq_mshr_miss_rate::total     0.215599                       # mshr miss rate for ReadSharedReq accesses
system.l2.demand_mshr_miss_rate::cpu.inst     0.998994                       # mshr miss rate for demand accesses
system.l2.demand_mshr_miss_rate::cpu.data     0.302748                       # mshr miss rate for demand accesses
system.l2.demand_mshr_miss_rate::total       0.303087                       # mshr miss rate for demand accesses
system.l2.overall_mshr_miss_rate::cpu.inst     0.998994                       # mshr miss rate for overall accesses
system.l2.overall_mshr_miss_rate::cpu.data     0.302748                       # mshr miss rate for overall accesses
system.l2.overall_mshr_miss_rate::total      0.303087                       # mshr miss rate for overall accesses
system.l2.ReadExReq_avg_mshr_miss_latency::cpu.data 74781.193884                       # average ReadExReq mshr miss latency
system.l2.ReadExReq_avg_mshr_miss_latency::total 74781.193884                       # average ReadExReq mshr miss latency
system.l2.ReadCleanReq_avg_mshr_miss_latency::cpu.inst 66102.719033                       # average ReadCleanReq mshr miss latency
system.l2.ReadCleanReq_avg_mshr_miss_latency::total 66102.719033                       # average ReadCleanReq mshr miss latency
system.l2.ReadSharedReq_avg_mshr_miss_latency::cpu.data 71992.419559                       # average ReadSharedReq mshr miss latency
system.l2.ReadSharedReq_avg_mshr_miss_latency::total 71992.419559                       # average ReadSharedReq mshr miss latency
system.l2.demand_avg_mshr_miss_latency::cpu.inst 66102.719033                       # average overall mshr miss latency
system.l2.demand_avg_mshr_miss_latency::cpu.data 73367.294501                       # average overall mshr miss latency
system.l2.demand_avg_mshr_miss_latency::total 73355.659445                       # average overall mshr miss latency
system.l2.overall_avg_mshr_miss_latency::cpu.inst 66102.719033                       # average overall mshr miss latency
system.l2.overall_avg_mshr_miss_latency::cpu.data 73367.294501                       # average overall mshr miss latency
system.l2.overall_avg_mshr_miss_latency::total 73355.659445                       # average overall mshr miss latency
system.l2.no_allocate_misses                        0                       # Number of misses that were no-allocate
system.membus.trans_dist::ReadResp             314827                       # Transaction distribution
system.membus.trans_dist::WritebackDirty       372364                       # Transaction distribution
system.membus.trans_dist::CleanEvict           230309                       # Transaction distribution
system.membus.trans_dist::ReadExReq            305172                       # Transaction distribution
system.membus.trans_dist::ReadExResp           305172                       # Transaction distribution
system.membus.trans_dist::ReadSharedReq        314827                       # Transaction distribution
system.membus.pkt_count_system.l2.mem_side::system.mem_ctrls.port      1842671                       # Packet count per connected master and slave (bytes)
system.membus.pkt_count_system.l2.mem_side::total      1842671                       # Packet count per connected master and slave (bytes)
system.membus.pkt_count::total                1842671                       # Packet count per connected master and slave (bytes)
system.membus.pkt_size_system.l2.mem_side::system.mem_ctrls.port     63511232                       # Cumulative packet size per connected master and slave (bytes)
system.membus.pkt_size_system.l2.mem_side::total     63511232                       # Cumulative packet size per connected master and slave (bytes)
system.membus.pkt_size::total                63511232                       # Cumulative packet size per connected master and slave (bytes)
system.membus.snoops                                0                       # Total snoops (count)
system.membus.snoop_fanout::samples           1222672                       # Request fanout histogram
system.membus.snoop_fanout::mean                    0                       # Request fanout histogram
system.membus.snoop_fanout::stdev                   0                       # Request fanout histogram
system.membus.snoop_fanout::underflows              0      0.00%      0.00% # Request fanout histogram
system.membus.snoop_fanout::0                 1222672    100.00%    100.00% # Request fanout histogram
system.membus.snoop_fanout::1                       0      0.00%    100.00% # Request fanout histogram
system.membus.snoop_fanout::overflows               0      0.00%    100.00% # Request fanout histogram
system.membus.snoop_fanout::min_value               0                       # Request fanout histogram
system.membus.snoop_fanout::max_value               0                       # Request fanout histogram
system.membus.snoop_fanout::total             1222672                       # Request fanout histogram
system.membus.reqLayer2.occupancy          2720116000                       # Layer occupancy (ticks)
system.membus.reqLayer2.utilization               0.3                       # Layer utilization (%)
system.membus.respLayer1.occupancy         3353737250                       # Layer occupancy (ticks)
system.membus.respLayer1.utilization              0.3                       # Layer utilization (%)
system.tol2bus.snoop_filter.tot_requests      4088237                       # Total number of requests made to the snoop filter.
system.tol2bus.snoop_filter.hit_single_requests      2042620                       # Number of requests hitting in the snoop filter with a single holder of the requested data.
system.tol2bus.snoop_filter.hit_multi_requests            1                       # Number of requests hitting in the snoop filter with multiple (>1) holders of the requested data.
system.tol2bus.snoop_filter.tot_snoops            754                       # Total number of snoops made to the snoop filter.
system.tol2bus.snoop_filter.hit_single_snoops          754                       # Number of snoops hitting in the snoop filter with a single holder of the requested data.
system.tol2bus.snoop_filter.hit_multi_snoops            0                       # Number of snoops hitting in the snoop filter with multiple (>1) holders of the requested data.
system.tol2bus.trans_dist::ReadResp           1456632                       # Transaction distribution
system.tol2bus.trans_dist::WritebackDirty      1328903                       # Transaction distribution
system.tol2bus.trans_dist::WritebackClean           45                       # Transaction distribution
system.tol2bus.trans_dist::CleanEvict         1317080                       # Transaction distribution
system.tol2bus.trans_dist::ReadExReq           588985                       # Transaction distribution
system.tol2bus.trans_dist::ReadExResp          588985                       # Transaction distribution
system.tol2bus.trans_dist::ReadCleanReq           994                       # Transaction distribution
system.tol2bus.trans_dist::ReadSharedReq      1455638                       # Transaction distribution
system.tol2bus.pkt_count_system.cpu.icache.mem_side::system.l2.cpu_side         2033                       # Packet count per connected master and slave (bytes)
system.tol2bus.pkt_count_system.cpu.dcache.mem_side::system.l2.cpu_side      6131820                       # Packet count per connected master and slave (bytes)
system.tol2bus.pkt_count::total               6133853                       # Packet count per connected master and slave (bytes)
system.tol2bus.pkt_size_system.cpu.icache.mem_side::system.l2.cpu_side        66496                       # Cumulative packet size per connected master and slave (bytes)
system.tol2bus.pkt_size_system.cpu.dcache.mem_side::system.l2.cpu_side    192074368                       # Cumulative packet size per connected master and slave (bytes)
system.tol2bus.pkt_size::total              192140864                       # Cumulative packet size per connected master and slave (bytes)
system.tol2bus.snoops                          603409                       # Total snoops (count)
system.tol2bus.snoop_fanout::samples          2649026                       # Request fanout histogram
system.tol2bus.snoop_fanout::mean            0.000285                       # Request fanout histogram
system.tol2bus.snoop_fanout::stdev           0.016880                       # Request fanout histogram
system.tol2bus.snoop_fanout::underflows             0      0.00%      0.00% # Request fanout histogram
system.tol2bus.snoop_fanout::0                2648271     99.97%     99.97% # Request fanout histogram
system.tol2bus.snoop_fanout::1                    755      0.03%    100.00% # Request fanout histogram
system.tol2bus.snoop_fanout::2                      0      0.00%    100.00% # Request fanout histogram
system.tol2bus.snoop_fanout::3                      0      0.00%    100.00% # Request fanout histogram
system.tol2bus.snoop_fanout::4                      0      0.00%    100.00% # Request fanout histogram
system.tol2bus.snoop_fanout::overflows              0      0.00%    100.00% # Request fanout histogram
system.tol2bus.snoop_fanout::min_value              0                       # Request fanout histogram
system.tol2bus.snoop_fanout::max_value              1                       # Request fanout histogram
system.tol2bus.snoop_fanout::total            2649026                       # Request fanout histogram
system.tol2bus.reqLayer0.occupancy         3000702500                       # Layer occupancy (ticks)
system.tol2bus.reqLayer0.utilization              0.3                       # Layer utilization (%)
system.tol2bus.respLayer0.occupancy           1491000                       # Layer occupancy (ticks)
system.tol2bus.respLayer0.utilization             0.0                       # Layer utilization (%)
system.tol2bus.respLayer1.occupancy        3066934500                       # Layer occupancy (ticks)
system.tol2bus.respLayer1.utilization             0.3                       # Layer utilization (%)

---------- End Simulation Statistics   ----------
