
---------- Begin Simulation Statistics ----------
sim_seconds                                  1.053345                       # Number of seconds simulated
sim_ticks                                1053345171500                       # Number of ticks simulated
final_tick                               1053345171500                       # Number of ticks from beginning of simulation (restored from checkpoints and never reset)
sim_freq                                 1000000000000                       # Frequency of simulated ticks
host_inst_rate                                  37955                       # Simulator instruction rate (inst/s)
host_op_rate                                    55449                       # Simulator op (including micro ops) rate (op/s)
host_tick_rate                               79959588                       # Simulator tick rate (ticks/s)
host_mem_usage                                 828672                       # Number of bytes of host memory used
host_seconds                                 13173.47                       # Real time elapsed on the host
sim_insts                                   500000001                       # Number of instructions simulated
sim_ops                                     730450447                       # Number of ops (including micro ops) simulated
system.voltage_domain.voltage                       1                       # Voltage in Volts
system.clk_domain.clock                          1000                       # Clock period in ticks
system.mem_ctrls.bytes_read::cpu.inst           63552                       # Number of bytes read from this memory
system.mem_ctrls.bytes_read::cpu.data        40705088                       # Number of bytes read from this memory
system.mem_ctrls.bytes_read::total           40768640                       # Number of bytes read from this memory
system.mem_ctrls.bytes_inst_read::cpu.inst        63552                       # Number of instructions bytes read from this memory
system.mem_ctrls.bytes_inst_read::total         63552                       # Number of instructions bytes read from this memory
system.mem_ctrls.bytes_written::writebacks     24547776                       # Number of bytes written to this memory
system.mem_ctrls.bytes_written::total        24547776                       # Number of bytes written to this memory
system.mem_ctrls.num_reads::cpu.inst              993                       # Number of read requests responded to by this memory
system.mem_ctrls.num_reads::cpu.data           636017                       # Number of read requests responded to by this memory
system.mem_ctrls.num_reads::total              637010                       # Number of read requests responded to by this memory
system.mem_ctrls.num_writes::writebacks        383559                       # Number of write requests responded to by this memory
system.mem_ctrls.num_writes::total             383559                       # Number of write requests responded to by this memory
system.mem_ctrls.bw_read::cpu.inst              60333                       # Total read bandwidth from this memory (bytes/s)
system.mem_ctrls.bw_read::cpu.data           38643637                       # Total read bandwidth from this memory (bytes/s)
system.mem_ctrls.bw_read::total              38703970                       # Total read bandwidth from this memory (bytes/s)
system.mem_ctrls.bw_inst_read::cpu.inst         60333                       # Instruction read bandwidth from this memory (bytes/s)
system.mem_ctrls.bw_inst_read::total            60333                       # Instruction read bandwidth from this memory (bytes/s)
system.mem_ctrls.bw_write::writebacks        23304589                       # Write bandwidth from this memory (bytes/s)
system.mem_ctrls.bw_write::total             23304589                       # Write bandwidth from this memory (bytes/s)
system.mem_ctrls.bw_total::writebacks        23304589                       # Total bandwidth to/from this memory (bytes/s)
system.mem_ctrls.bw_total::cpu.inst             60333                       # Total bandwidth to/from this memory (bytes/s)
system.mem_ctrls.bw_total::cpu.data          38643637                       # Total bandwidth to/from this memory (bytes/s)
system.mem_ctrls.bw_total::total             62008559                       # Total bandwidth to/from this memory (bytes/s)
system.mem_ctrls.readReqs                      637010                       # Number of read requests accepted
system.mem_ctrls.writeReqs                     383559                       # Number of write requests accepted
system.mem_ctrls.readBursts                    637010                       # Number of DRAM read bursts, including those serviced by the write queue
system.mem_ctrls.writeBursts                   383559                       # Number of DRAM write bursts, including those merged in the write queue
system.mem_ctrls.bytesReadDRAM               40717568                       # Total number of bytes read from DRAM
system.mem_ctrls.bytesReadWrQ                   51072                       # Total number of bytes read from write queue
system.mem_ctrls.bytesWritten                24546240                       # Total number of bytes written to DRAM
system.mem_ctrls.bytesReadSys                40768640                       # Total read bytes from the system interface side
system.mem_ctrls.bytesWrittenSys             24547776                       # Total written bytes from the system interface side
system.mem_ctrls.servicedByWrQ                    798                       # Number of DRAM read bursts serviced by the write queue
system.mem_ctrls.mergedWrBursts                     0                       # Number of DRAM write bursts merged with an existing one
system.mem_ctrls.neitherReadNorWriteReqs       236150                       # Number of requests that are neither read nor write
system.mem_ctrls.perBankRdBursts::0             42272                       # Per bank write bursts
system.mem_ctrls.perBankRdBursts::1             40426                       # Per bank write bursts
system.mem_ctrls.perBankRdBursts::2             39195                       # Per bank write bursts
system.mem_ctrls.perBankRdBursts::3             38418                       # Per bank write bursts
system.mem_ctrls.perBankRdBursts::4             37762                       # Per bank write bursts
system.mem_ctrls.perBankRdBursts::5             38276                       # Per bank write bursts
system.mem_ctrls.perBankRdBursts::6             39489                       # Per bank write bursts
system.mem_ctrls.perBankRdBursts::7             39024                       # Per bank write bursts
system.mem_ctrls.perBankRdBursts::8             37128                       # Per bank write bursts
system.mem_ctrls.perBankRdBursts::9             36466                       # Per bank write bursts
system.mem_ctrls.perBankRdBursts::10            39575                       # Per bank write bursts
system.mem_ctrls.perBankRdBursts::11            40808                       # Per bank write bursts
system.mem_ctrls.perBankRdBursts::12            41677                       # Per bank write bursts
system.mem_ctrls.perBankRdBursts::13            41366                       # Per bank write bursts
system.mem_ctrls.perBankRdBursts::14            41964                       # Per bank write bursts
system.mem_ctrls.perBankRdBursts::15            42366                       # Per bank write bursts
system.mem_ctrls.perBankWrBursts::0             25438                       # Per bank write bursts
system.mem_ctrls.perBankWrBursts::1             24240                       # Per bank write bursts
system.mem_ctrls.perBankWrBursts::2             23599                       # Per bank write bursts
system.mem_ctrls.perBankWrBursts::3             22997                       # Per bank write bursts
system.mem_ctrls.perBankWrBursts::4             22479                       # Per bank write bursts
system.mem_ctrls.perBankWrBursts::5             22432                       # Per bank write bursts
system.mem_ctrls.perBankWrBursts::6             23039                       # Per bank write bursts
system.mem_ctrls.perBankWrBursts::7             23325                       # Per bank write bursts
system.mem_ctrls.perBankWrBursts::8             23064                       # Per bank write bursts
system.mem_ctrls.perBankWrBursts::9             22805                       # Per bank write bursts
system.mem_ctrls.perBankWrBursts::10            24198                       # Per bank write bursts
system.mem_ctrls.perBankWrBursts::11            24606                       # Per bank write bursts
system.mem_ctrls.perBankWrBursts::12            24845                       # Per bank write bursts
system.mem_ctrls.perBankWrBursts::13            25179                       # Per bank write bursts
system.mem_ctrls.perBankWrBursts::14            25617                       # Per bank write bursts
system.mem_ctrls.perBankWrBursts::15            25672                       # Per bank write bursts
system.mem_ctrls.numRdRetry                         0                       # Number of times read queue was full causing retry
system.mem_ctrls.numWrRetry                         0                       # Number of times write queue was full causing retry
system.mem_ctrls.totGap                  1053312344500                       # Total gap between requests
system.mem_ctrls.readPktSize::0                     0                       # Read request sizes (log2)
system.mem_ctrls.readPktSize::1                     0                       # Read request sizes (log2)
system.mem_ctrls.readPktSize::2                     0                       # Read request sizes (log2)
system.mem_ctrls.readPktSize::3                     0                       # Read request sizes (log2)
system.mem_ctrls.readPktSize::4                     0                       # Read request sizes (log2)
system.mem_ctrls.readPktSize::5                     0                       # Read request sizes (log2)
system.mem_ctrls.readPktSize::6                637010                       # Read request sizes (log2)
system.mem_ctrls.writePktSize::0                    0                       # Write request sizes (log2)
system.mem_ctrls.writePktSize::1                    0                       # Write request sizes (log2)
system.mem_ctrls.writePktSize::2                    0                       # Write request sizes (log2)
system.mem_ctrls.writePktSize::3                    0                       # Write request sizes (log2)
system.mem_ctrls.writePktSize::4                    0                       # Write request sizes (log2)
system.mem_ctrls.writePktSize::5                    0                       # Write request sizes (log2)
system.mem_ctrls.writePktSize::6               383559                       # Write request sizes (log2)
system.mem_ctrls.rdQLenPdf::0                  627584                       # What read queue length does an incoming req see
system.mem_ctrls.rdQLenPdf::1                    8057                       # What read queue length does an incoming req see
system.mem_ctrls.rdQLenPdf::2                     425                       # What read queue length does an incoming req see
system.mem_ctrls.rdQLenPdf::3                     146                       # What read queue length does an incoming req see
system.mem_ctrls.rdQLenPdf::4                       0                       # What read queue length does an incoming req see
system.mem_ctrls.rdQLenPdf::5                       0                       # What read queue length does an incoming req see
system.mem_ctrls.rdQLenPdf::6                       0                       # What read queue length does an incoming req see
system.mem_ctrls.rdQLenPdf::7                       0                       # What read queue length does an incoming req see
system.mem_ctrls.rdQLenPdf::8                       0                       # What read queue length does an incoming req see
system.mem_ctrls.rdQLenPdf::9                       0                       # What read queue length does an incoming req see
system.mem_ctrls.rdQLenPdf::10                      0                       # What read queue length does an incoming req see
system.mem_ctrls.rdQLenPdf::11                      0                       # What read queue length does an incoming req see
system.mem_ctrls.rdQLenPdf::12                      0                       # What read queue length does an incoming req see
system.mem_ctrls.rdQLenPdf::13                      0                       # What read queue length does an incoming req see
system.mem_ctrls.rdQLenPdf::14                      0                       # What read queue length does an incoming req see
system.mem_ctrls.rdQLenPdf::15                      0                       # What read queue length does an incoming req see
system.mem_ctrls.rdQLenPdf::16                      0                       # What read queue length does an incoming req see
system.mem_ctrls.rdQLenPdf::17                      0                       # What read queue length does an incoming req see
system.mem_ctrls.rdQLenPdf::18                      0                       # What read queue length does an incoming req see
system.mem_ctrls.rdQLenPdf::19                      0                       # What read queue length does an incoming req see
system.mem_ctrls.rdQLenPdf::20                      0                       # What read queue length does an incoming req see
system.mem_ctrls.rdQLenPdf::21                      0                       # What read queue length does an incoming req see
system.mem_ctrls.rdQLenPdf::22                      0                       # What read queue length does an incoming req see
system.mem_ctrls.rdQLenPdf::23                      0                       # What read queue length does an incoming req see
system.mem_ctrls.rdQLenPdf::24                      0                       # What read queue length does an incoming req see
system.mem_ctrls.rdQLenPdf::25                      0                       # What read queue length does an incoming req see
system.mem_ctrls.rdQLenPdf::26                      0                       # What read queue length does an incoming req see
system.mem_ctrls.rdQLenPdf::27                      0                       # What read queue length does an incoming req see
system.mem_ctrls.rdQLenPdf::28                      0                       # What read queue length does an incoming req see
system.mem_ctrls.rdQLenPdf::29                      0                       # What read queue length does an incoming req see
system.mem_ctrls.rdQLenPdf::30                      0                       # What read queue length does an incoming req see
system.mem_ctrls.rdQLenPdf::31                      0                       # What read queue length does an incoming req see
system.mem_ctrls.wrQLenPdf::0                       1                       # What write queue length does an incoming req see
system.mem_ctrls.wrQLenPdf::1                       1                       # What write queue length does an incoming req see
system.mem_ctrls.wrQLenPdf::2                       1                       # What write queue length does an incoming req see
system.mem_ctrls.wrQLenPdf::3                       1                       # What write queue length does an incoming req see
system.mem_ctrls.wrQLenPdf::4                       1                       # What write queue length does an incoming req see
system.mem_ctrls.wrQLenPdf::5                       1                       # What write queue length does an incoming req see
system.mem_ctrls.wrQLenPdf::6                       1                       # What write queue length does an incoming req see
system.mem_ctrls.wrQLenPdf::7                       1                       # What write queue length does an incoming req see
system.mem_ctrls.wrQLenPdf::8                       1                       # What write queue length does an incoming req see
system.mem_ctrls.wrQLenPdf::9                       1                       # What write queue length does an incoming req see
system.mem_ctrls.wrQLenPdf::10                      1                       # What write queue length does an incoming req see
system.mem_ctrls.wrQLenPdf::11                      1                       # What write queue length does an incoming req see
system.mem_ctrls.wrQLenPdf::12                      1                       # What write queue length does an incoming req see
system.mem_ctrls.wrQLenPdf::13                      1                       # What write queue length does an incoming req see
system.mem_ctrls.wrQLenPdf::14                      1                       # What write queue length does an incoming req see
system.mem_ctrls.wrQLenPdf::15                  13959                       # What write queue length does an incoming req see
system.mem_ctrls.wrQLenPdf::16                  15006                       # What write queue length does an incoming req see
system.mem_ctrls.wrQLenPdf::17                  22046                       # What write queue length does an incoming req see
system.mem_ctrls.wrQLenPdf::18                  22176                       # What write queue length does an incoming req see
system.mem_ctrls.wrQLenPdf::19                  22145                       # What write queue length does an incoming req see
system.mem_ctrls.wrQLenPdf::20                  22139                       # What write queue length does an incoming req see
system.mem_ctrls.wrQLenPdf::21                  22135                       # What write queue length does an incoming req see
system.mem_ctrls.wrQLenPdf::22                  22130                       # What write queue length does an incoming req see
system.mem_ctrls.wrQLenPdf::23                  22138                       # What write queue length does an incoming req see
system.mem_ctrls.wrQLenPdf::24                  22130                       # What write queue length does an incoming req see
system.mem_ctrls.wrQLenPdf::25                  22145                       # What write queue length does an incoming req see
system.mem_ctrls.wrQLenPdf::26                  22168                       # What write queue length does an incoming req see
system.mem_ctrls.wrQLenPdf::27                  22283                       # What write queue length does an incoming req see
system.mem_ctrls.wrQLenPdf::28                  22415                       # What write queue length does an incoming req see
system.mem_ctrls.wrQLenPdf::29                  22144                       # What write queue length does an incoming req see
system.mem_ctrls.wrQLenPdf::30                  22129                       # What write queue length does an incoming req see
system.mem_ctrls.wrQLenPdf::31                  22124                       # What write queue length does an incoming req see
system.mem_ctrls.wrQLenPdf::32                  22120                       # What write queue length does an incoming req see
system.mem_ctrls.wrQLenPdf::33                     12                       # What write queue length does an incoming req see
system.mem_ctrls.wrQLenPdf::34                      0                       # What write queue length does an incoming req see
system.mem_ctrls.wrQLenPdf::35                      0                       # What write queue length does an incoming req see
system.mem_ctrls.wrQLenPdf::36                      0                       # What write queue length does an incoming req see
system.mem_ctrls.wrQLenPdf::37                      0                       # What write queue length does an incoming req see
system.mem_ctrls.wrQLenPdf::38                      0                       # What write queue length does an incoming req see
system.mem_ctrls.wrQLenPdf::39                      0                       # What write queue length does an incoming req see
system.mem_ctrls.wrQLenPdf::40                      0                       # What write queue length does an incoming req see
system.mem_ctrls.wrQLenPdf::41                      0                       # What write queue length does an incoming req see
system.mem_ctrls.wrQLenPdf::42                      0                       # What write queue length does an incoming req see
system.mem_ctrls.wrQLenPdf::43                      0                       # What write queue length does an incoming req see
system.mem_ctrls.wrQLenPdf::44                      0                       # What write queue length does an incoming req see
system.mem_ctrls.wrQLenPdf::45                      0                       # What write queue length does an incoming req see
system.mem_ctrls.wrQLenPdf::46                      0                       # What write queue length does an incoming req see
system.mem_ctrls.wrQLenPdf::47                      0                       # What write queue length does an incoming req see
system.mem_ctrls.wrQLenPdf::48                      0                       # What write queue length does an incoming req see
system.mem_ctrls.wrQLenPdf::49                      0                       # What write queue length does an incoming req see
system.mem_ctrls.wrQLenPdf::50                      0                       # What write queue length does an incoming req see
system.mem_ctrls.wrQLenPdf::51                      0                       # What write queue length does an incoming req see
system.mem_ctrls.wrQLenPdf::52                      0                       # What write queue length does an incoming req see
system.mem_ctrls.wrQLenPdf::53                      0                       # What write queue length does an incoming req see
system.mem_ctrls.wrQLenPdf::54                      0                       # What write queue length does an incoming req see
system.mem_ctrls.wrQLenPdf::55                      0                       # What write queue length does an incoming req see
system.mem_ctrls.wrQLenPdf::56                      0                       # What write queue length does an incoming req see
system.mem_ctrls.wrQLenPdf::57                      0                       # What write queue length does an incoming req see
system.mem_ctrls.wrQLenPdf::58                      0                       # What write queue length does an incoming req see
system.mem_ctrls.wrQLenPdf::59                      0                       # What write queue length does an incoming req see
system.mem_ctrls.wrQLenPdf::60                      0                       # What write queue length does an incoming req see
system.mem_ctrls.wrQLenPdf::61                      0                       # What write queue length does an incoming req see
system.mem_ctrls.wrQLenPdf::62                      0                       # What write queue length does an incoming req see
system.mem_ctrls.wrQLenPdf::63                      0                       # What write queue length does an incoming req see
system.mem_ctrls.bytesPerActivate::samples       565334                       # Bytes accessed per row activation
system.mem_ctrls.bytesPerActivate::mean    115.442920                       # Bytes accessed per row activation
system.mem_ctrls.bytesPerActivate::gmean    87.132772                       # Bytes accessed per row activation
system.mem_ctrls.bytesPerActivate::stdev   144.536347                       # Bytes accessed per row activation
system.mem_ctrls.bytesPerActivate::0-127       412974     73.05%     73.05% # Bytes accessed per row activation
system.mem_ctrls.bytesPerActivate::128-255       105264     18.62%     91.67% # Bytes accessed per row activation
system.mem_ctrls.bytesPerActivate::256-383        19503      3.45%     95.12% # Bytes accessed per row activation
system.mem_ctrls.bytesPerActivate::384-511         6208      1.10%     96.22% # Bytes accessed per row activation
system.mem_ctrls.bytesPerActivate::512-639        10704      1.89%     98.11% # Bytes accessed per row activation
system.mem_ctrls.bytesPerActivate::640-767         1146      0.20%     98.31% # Bytes accessed per row activation
system.mem_ctrls.bytesPerActivate::768-895         1000      0.18%     98.49% # Bytes accessed per row activation
system.mem_ctrls.bytesPerActivate::896-1023          751      0.13%     98.62% # Bytes accessed per row activation
system.mem_ctrls.bytesPerActivate::1024-1151         7784      1.38%    100.00% # Bytes accessed per row activation
system.mem_ctrls.bytesPerActivate::total       565334                       # Bytes accessed per row activation
system.mem_ctrls.rdPerTurnAround::samples        22120                       # Reads before turning the bus around for writes
system.mem_ctrls.rdPerTurnAround::mean      28.573101                       # Reads before turning the bus around for writes
system.mem_ctrls.rdPerTurnAround::gmean     23.860752                       # Reads before turning the bus around for writes
system.mem_ctrls.rdPerTurnAround::stdev    202.813292                       # Reads before turning the bus around for writes
system.mem_ctrls.rdPerTurnAround::0-1023        22107     99.94%     99.94% # Reads before turning the bus around for writes
system.mem_ctrls.rdPerTurnAround::1024-2047            4      0.02%     99.96% # Reads before turning the bus around for writes
system.mem_ctrls.rdPerTurnAround::2048-3071            6      0.03%     99.99% # Reads before turning the bus around for writes
system.mem_ctrls.rdPerTurnAround::4096-5119            1      0.00%     99.99% # Reads before turning the bus around for writes
system.mem_ctrls.rdPerTurnAround::5120-6143            1      0.00%    100.00% # Reads before turning the bus around for writes
system.mem_ctrls.rdPerTurnAround::27648-28671            1      0.00%    100.00% # Reads before turning the bus around for writes
system.mem_ctrls.rdPerTurnAround::total         22120                       # Reads before turning the bus around for writes
system.mem_ctrls.wrPerTurnAround::samples        22120                       # Writes before turning the bus around for reads
system.mem_ctrls.wrPerTurnAround::mean      17.338834                       # Writes before turning the bus around for reads
system.mem_ctrls.wrPerTurnAround::gmean     17.311673                       # Writes before turning the bus around for reads
system.mem_ctrls.wrPerTurnAround::stdev      0.960390                       # Writes before turning the bus around for reads
system.mem_ctrls.wrPerTurnAround::16             7104     32.12%     32.12% # Writes before turning the bus around for reads
system.mem_ctrls.wrPerTurnAround::17             1025      4.63%     36.75% # Writes before turning the bus around for reads
system.mem_ctrls.wrPerTurnAround::18            13394     60.55%     97.30% # Writes before turning the bus around for reads
system.mem_ctrls.wrPerTurnAround::19              586      2.65%     99.95% # Writes before turning the bus around for reads
system.mem_ctrls.wrPerTurnAround::20               11      0.05%    100.00% # Writes before turning the bus around for reads
system.mem_ctrls.wrPerTurnAround::total         22120                       # Writes before turning the bus around for reads
system.mem_ctrls.totQLat                   9556537000                       # Total ticks spent queuing
system.mem_ctrls.totMemAccLat             21485512000                       # Total ticks spent from burst creation until serviced by the DRAM
system.mem_ctrls.totBusLat                 3181060000                       # Total ticks spent in databus transfers
system.mem_ctrls.avgQLat                     15020.99                       # Average queueing delay per DRAM burst
system.mem_ctrls.avgBusLat                    5000.00                       # Average bus latency per DRAM burst
system.mem_ctrls.avgMemAccLat                33770.99                       # Average memory access latency per DRAM burst
system.mem_ctrls.avgRdBW                        38.66                       # Average DRAM read bandwidth in MiByte/s
system.mem_ctrls.avgWrBW                        23.30                       # Average achieved write bandwidth in MiByte/s
system.mem_ctrls.avgRdBWSys                     38.70                       # Average system read bandwidth in MiByte/s
system.mem_ctrls.avgWrBWSys                     23.30                       # Average system write bandwidth in MiByte/s
system.mem_ctrls.peakBW                      12800.00                       # Theoretical peak bandwidth in MiByte/s
system.mem_ctrls.busUtil                         0.48                       # Data bus utilization in percentage
system.mem_ctrls.busUtilRead                     0.30                       # Data bus utilization in percentage for reads
system.mem_ctrls.busUtilWrite                    0.18                       # Data bus utilization in percentage for writes
system.mem_ctrls.avgRdQLen                       1.00                       # Average read queue length when enqueuing
system.mem_ctrls.avgWrQLen                      25.09                       # Average write queue length when enqueuing
system.mem_ctrls.readRowHits                   296843                       # Number of row buffer hits during reads
system.mem_ctrls.writeRowHits                  157570                       # Number of row buffer hits during writes
system.mem_ctrls.readRowHitRate                 46.66                       # Row buffer hit rate for reads
system.mem_ctrls.writeRowHitRate                41.08                       # Row buffer hit rate for writes
system.mem_ctrls.avgGap                    1032083.42                       # Average gap between requests
system.mem_ctrls.pageHitRate                    44.56                       # Row buffer hit rate, read and write combined
system.mem_ctrls_0.actEnergy               2103539760                       # Energy for activate commands per rank (pJ)
system.mem_ctrls_0.preEnergy               1147764750                       # Energy for precharge commands per rank (pJ)
system.mem_ctrls_0.readEnergy              2455923600                       # Energy for read commands per rank (pJ)
system.mem_ctrls_0.writeEnergy             1215317520                       # Energy for write commands per rank (pJ)
system.mem_ctrls_0.refreshEnergy          68799013920                       # Energy for refresh commands per rank (pJ)
system.mem_ctrls_0.actBackEnergy         205494413265                       # Energy for active background per rank (pJ)
system.mem_ctrls_0.preBackEnergy         451745574000                       # Energy for precharge background per rank (pJ)
system.mem_ctrls_0.totalEnergy           732961546815                       # Total energy per rank (pJ)
system.mem_ctrls_0.averagePower            695.845351                       # Core power per rank (mW)
system.mem_ctrls_0.memoryStateTime::IDLE 750288871000                       # Time in different power states
system.mem_ctrls_0.memoryStateTime::REF   35173320000                       # Time in different power states
system.mem_ctrls_0.memoryStateTime::PRE_PDN            0                       # Time in different power states
system.mem_ctrls_0.memoryStateTime::ACT  267877541500                       # Time in different power states
system.mem_ctrls_0.memoryStateTime::ACT_PDN            0                       # Time in different power states
system.mem_ctrls_1.actEnergy               2170385280                       # Energy for activate commands per rank (pJ)
system.mem_ctrls_1.preEnergy               1184238000                       # Energy for precharge commands per rank (pJ)
system.mem_ctrls_1.readEnergy              2506530000                       # Energy for read commands per rank (pJ)
system.mem_ctrls_1.writeEnergy             1269989280                       # Energy for write commands per rank (pJ)
system.mem_ctrls_1.refreshEnergy          68799013920                       # Energy for refresh commands per rank (pJ)
system.mem_ctrls_1.actBackEnergy         205923412935                       # Energy for active background per rank (pJ)
system.mem_ctrls_1.preBackEnergy         451369258500                       # Energy for precharge background per rank (pJ)
system.mem_ctrls_1.totalEnergy           733222827915                       # Total energy per rank (pJ)
system.mem_ctrls_1.averagePower            696.093402                       # Core power per rank (mW)
system.mem_ctrls_1.memoryStateTime::IDLE 749652128750                       # Time in different power states
system.mem_ctrls_1.memoryStateTime::REF   35173320000                       # Time in different power states
system.mem_ctrls_1.memoryStateTime::PRE_PDN            0                       # Time in different power states
system.mem_ctrls_1.memoryStateTime::ACT  268514283750                       # Time in different power states
system.mem_ctrls_1.memoryStateTime::ACT_PDN            0                       # Time in different power states
system.cpu_voltage_domain.voltage                   1                       # Voltage in Volts
system.cpu_clk_domain.clock                       500                       # Clock period in ticks
system.cpu.apic_clk_domain.clock                 8000                       # Clock period in ticks
system.cpu.workload.num_syscalls                   86                       # Number of system calls
system.cpu.numCycles                       2106690343                       # number of cpu cycles simulated
system.cpu.numWorkItemsStarted                      0                       # number of work items this cpu started
system.cpu.numWorkItemsCompleted                    0                       # number of work items this cpu completed
system.cpu.committedInsts                   500000001                       # Number of instructions committed
system.cpu.committedOps                     730450447                       # Number of ops (including micro ops) committed
system.cpu.num_int_alu_accesses             729688907                       # Number of integer alu accesses
system.cpu.num_fp_alu_accesses                    663                       # Number of float alu accesses
system.cpu.num_func_calls                     1453961                       # number of times a function call or return occured
system.cpu.num_conditional_control_insts     31770496                       # number of instructions that are conditional controls
system.cpu.num_int_insts                    729688907                       # number of integer instructions
system.cpu.num_fp_insts                           663                       # number of float instructions
system.cpu.num_int_register_reads          1698743410                       # number of times the integer registers were read
system.cpu.num_int_register_writes          621892952                       # number of times the integer registers were written
system.cpu.num_fp_register_reads                 1009                       # number of times the floating registers were read
system.cpu.num_fp_register_writes                 429                       # number of times the floating registers were written
system.cpu.num_cc_register_reads            180840558                       # number of times the CC registers were read
system.cpu.num_cc_register_writes           276245127                       # number of times the CC registers were written
system.cpu.num_mem_refs                     295985459                       # number of memory refs
system.cpu.num_load_insts                   225946750                       # Number of load instructions
system.cpu.num_store_insts                   70038709                       # Number of store instructions
system.cpu.num_idle_cycles                          0                       # Number of idle cycles
system.cpu.num_busy_cycles                 2106690343                       # Number of busy cycles
system.cpu.not_idle_fraction                        1                       # Percentage of non-idle cycles
system.cpu.idle_fraction                            0                       # Percentage of idle cycles
system.cpu.Branches                          37843296                       # Number of branches fetched
system.cpu.op_class::No_OpClass                 94739      0.01%      0.01% # Class of executed instruction
system.cpu.op_class::IntAlu                 434349070     59.46%     59.48% # Class of executed instruction
system.cpu.op_class::IntMult                    20662      0.00%     59.48% # Class of executed instruction
system.cpu.op_class::IntDiv                       119      0.00%     59.48% # Class of executed instruction
system.cpu.op_class::FloatAdd                     398      0.00%     59.48% # Class of executed instruction
system.cpu.op_class::FloatCmp                       0      0.00%     59.48% # Class of executed instruction
system.cpu.op_class::FloatCvt                       0      0.00%     59.48% # Class of executed instruction
system.cpu.op_class::FloatMult                      0      0.00%     59.48% # Class of executed instruction
system.cpu.op_class::FloatDiv                       0      0.00%     59.48% # Class of executed instruction
system.cpu.op_class::FloatSqrt                      0      0.00%     59.48% # Class of executed instruction
system.cpu.op_class::SimdAdd                        0      0.00%     59.48% # Class of executed instruction
system.cpu.op_class::SimdAddAcc                     0      0.00%     59.48% # Class of executed instruction
system.cpu.op_class::SimdAlu                        0      0.00%     59.48% # Class of executed instruction
system.cpu.op_class::SimdCmp                        0      0.00%     59.48% # Class of executed instruction
system.cpu.op_class::SimdCvt                        0      0.00%     59.48% # Class of executed instruction
system.cpu.op_class::SimdMisc                       0      0.00%     59.48% # Class of executed instruction
system.cpu.op_class::SimdMult                       0      0.00%     59.48% # Class of executed instruction
system.cpu.op_class::SimdMultAcc                    0      0.00%     59.48% # Class of executed instruction
system.cpu.op_class::SimdShift                      0      0.00%     59.48% # Class of executed instruction
system.cpu.op_class::SimdShiftAcc                   0      0.00%     59.48% # Class of executed instruction
system.cpu.op_class::SimdSqrt                       0      0.00%     59.48% # Class of executed instruction
system.cpu.op_class::SimdFloatAdd                   0      0.00%     59.48% # Class of executed instruction
system.cpu.op_class::SimdFloatAlu                   0      0.00%     59.48% # Class of executed instruction
system.cpu.op_class::SimdFloatCmp                   0      0.00%     59.48% # Class of executed instruction
system.cpu.op_class::SimdFloatCvt                   0      0.00%     59.48% # Class of executed instruction
system.cpu.op_class::SimdFloatDiv                   0      0.00%     59.48% # Class of executed instruction
system.cpu.op_class::SimdFloatMisc                  0      0.00%     59.48% # Class of executed instruction
system.cpu.op_class::SimdFloatMult                  0      0.00%     59.48% # Class of executed instruction
system.cpu.op_class::SimdFloatMultAcc               0      0.00%     59.48% # Class of executed instruction
system.cpu.op_class::SimdFloatSqrt                  0      0.00%     59.48% # Class of executed instruction
system.cpu.op_class::MemRead                225946750     30.93%     90.41% # Class of executed instruction
system.cpu.op_class::MemWrite                70038709      9.59%    100.00% # Class of executed instruction
system.cpu.op_class::IprAccess                      0      0.00%    100.00% # Class of executed instruction
system.cpu.op_class::InstPrefetch                   0      0.00%    100.00% # Class of executed instruction
system.cpu.op_class::total                  730450447                       # Class of executed instruction
system.cpu.dcache.tags.replacements           2042575                       # number of replacements
system.cpu.dcache.tags.tagsinuse          2042.157901                       # Cycle average of tags in use
system.cpu.dcache.tags.total_refs           293940844                       # Total number of references to valid blocks.
system.cpu.dcache.tags.sampled_refs           2044623                       # Sample count of references to valid blocks.
system.cpu.dcache.tags.avg_refs            143.762857                       # Average number of references to valid blocks.
system.cpu.dcache.tags.warmup_cycle        3523740500                       # Cycle when the warmup percentage was hit.
system.cpu.dcache.tags.occ_blocks::cpu.data  2042.157901                       # Average occupied blocks per requestor
system.cpu.dcache.tags.occ_percent::cpu.data     0.997147                       # Average percentage of cache occupancy
system.cpu.dcache.tags.occ_percent::total     0.997147                       # Average percentage of cache occupancy
system.cpu.dcache.tags.occ_task_id_blocks::1024         2048                       # Occupied blocks per task id
system.cpu.dcache.tags.age_task_id_blocks_1024::1            2                       # Occupied blocks per task id
system.cpu.dcache.tags.age_task_id_blocks_1024::2           16                       # Occupied blocks per task id
system.cpu.dcache.tags.age_task_id_blocks_1024::3         1420                       # Occupied blocks per task id
system.cpu.dcache.tags.age_task_id_blocks_1024::4          610                       # Occupied blocks per task id
system.cpu.dcache.tags.occ_task_id_percent::1024            1                       # Percentage of cache occupancy per task id
system.cpu.dcache.tags.tag_accesses         594015557                       # Number of tag accesses
system.cpu.dcache.tags.data_accesses        594015557                       # Number of data accesses
system.cpu.dcache.ReadReq_hits::cpu.data    224491119                       # number of ReadReq hits
system.cpu.dcache.ReadReq_hits::total       224491119                       # number of ReadReq hits
system.cpu.dcache.WriteReq_hits::cpu.data     69449725                       # number of WriteReq hits
system.cpu.dcache.WriteReq_hits::total       69449725                       # number of WriteReq hits
system.cpu.dcache.demand_hits::cpu.data     293940844                       # number of demand (read+write) hits
system.cpu.dcache.demand_hits::total        293940844                       # number of demand (read+write) hits
system.cpu.dcache.overall_hits::cpu.data    293940844                       # number of overall hits
system.cpu.dcache.overall_hits::total       293940844                       # number of overall hits
system.cpu.dcache.ReadReq_misses::cpu.data      1439254                       # number of ReadReq misses
system.cpu.dcache.ReadReq_misses::total       1439254                       # number of ReadReq misses
system.cpu.dcache.WriteReq_misses::cpu.data       588985                       # number of WriteReq misses
system.cpu.dcache.WriteReq_misses::total       588985                       # number of WriteReq misses
system.cpu.dcache.SoftPFReq_misses::cpu.data        16384                       # number of SoftPFReq misses
system.cpu.dcache.SoftPFReq_misses::total        16384                       # number of SoftPFReq misses
system.cpu.dcache.demand_misses::cpu.data      2028239                       # number of demand (read+write) misses
system.cpu.dcache.demand_misses::total        2028239                       # number of demand (read+write) misses
system.cpu.dcache.overall_misses::cpu.data      2044623                       # number of overall misses
system.cpu.dcache.overall_misses::total       2044623                       # number of overall misses
system.cpu.dcache.ReadReq_miss_latency::cpu.data  40372453500                       # number of ReadReq miss cycles
system.cpu.dcache.ReadReq_miss_latency::total  40372453500                       # number of ReadReq miss cycles
system.cpu.dcache.WriteReq_miss_latency::cpu.data  31428931500                       # number of WriteReq miss cycles
system.cpu.dcache.WriteReq_miss_latency::total  31428931500                       # number of WriteReq miss cycles
system.cpu.dcache.demand_miss_latency::cpu.data  71801385000                       # number of demand (read+write) miss cycles
system.cpu.dcache.demand_miss_latency::total  71801385000                       # number of demand (read+write) miss cycles
system.cpu.dcache.overall_miss_latency::cpu.data  71801385000                       # number of overall miss cycles
system.cpu.dcache.overall_miss_latency::total  71801385000                       # number of overall miss cycles
system.cpu.dcache.ReadReq_accesses::cpu.data    225930373                       # number of ReadReq accesses(hits+misses)
system.cpu.dcache.ReadReq_accesses::total    225930373                       # number of ReadReq accesses(hits+misses)
system.cpu.dcache.WriteReq_accesses::cpu.data     70038710                       # number of WriteReq accesses(hits+misses)
system.cpu.dcache.WriteReq_accesses::total     70038710                       # number of WriteReq accesses(hits+misses)
system.cpu.dcache.SoftPFReq_accesses::cpu.data        16384                       # number of SoftPFReq accesses(hits+misses)
system.cpu.dcache.SoftPFReq_accesses::total        16384                       # number of SoftPFReq accesses(hits+misses)
system.cpu.dcache.demand_accesses::cpu.data    295969083                       # number of demand (read+write) accesses
system.cpu.dcache.demand_accesses::total    295969083                       # number of demand (read+write) accesses
system.cpu.dcache.overall_accesses::cpu.data    295985467                       # number of overall (read+write) accesses
system.cpu.dcache.overall_accesses::total    295985467                       # number of overall (read+write) accesses
system.cpu.dcache.ReadReq_miss_rate::cpu.data     0.006370                       # miss rate for ReadReq accesses
system.cpu.dcache.ReadReq_miss_rate::total     0.006370                       # miss rate for ReadReq accesses
system.cpu.dcache.WriteReq_miss_rate::cpu.data     0.008409                       # miss rate for WriteReq accesses
system.cpu.dcache.WriteReq_miss_rate::total     0.008409                       # miss rate for WriteReq accesses
system.cpu.dcache.SoftPFReq_miss_rate::cpu.data            1                       # miss rate for SoftPFReq accesses
system.cpu.dcache.SoftPFReq_miss_rate::total            1                       # miss rate for SoftPFReq accesses
system.cpu.dcache.demand_miss_rate::cpu.data     0.006853                       # miss rate for demand accesses
system.cpu.dcache.demand_miss_rate::total     0.006853                       # miss rate for demand accesses
system.cpu.dcache.overall_miss_rate::cpu.data     0.006908                       # miss rate for overall accesses
system.cpu.dcache.overall_miss_rate::total     0.006908                       # miss rate for overall accesses
system.cpu.dcache.ReadReq_avg_miss_latency::cpu.data 28050.957996                       # average ReadReq miss latency
system.cpu.dcache.ReadReq_avg_miss_latency::total 28050.957996                       # average ReadReq miss latency
system.cpu.dcache.WriteReq_avg_miss_latency::cpu.data 53361.174733                       # average WriteReq miss latency
system.cpu.dcache.WriteReq_avg_miss_latency::total 53361.174733                       # average WriteReq miss latency
system.cpu.dcache.demand_avg_miss_latency::cpu.data 35400.850196                       # average overall miss latency
system.cpu.dcache.demand_avg_miss_latency::total 35400.850196                       # average overall miss latency
system.cpu.dcache.overall_avg_miss_latency::cpu.data 35117.175636                       # average overall miss latency
system.cpu.dcache.overall_avg_miss_latency::total 35117.175636                       # average overall miss latency
system.cpu.dcache.blocked_cycles::no_mshrs       237198                       # number of cycles access was blocked
system.cpu.dcache.blocked_cycles::no_targets            0                       # number of cycles access was blocked
system.cpu.dcache.blocked::no_mshrs              5557                       # number of cycles access was blocked
system.cpu.dcache.blocked::no_targets               0                       # number of cycles access was blocked
system.cpu.dcache.avg_blocked_cycles::no_mshrs    42.684542                       # average number of cycles each access was blocked
system.cpu.dcache.avg_blocked_cycles::no_targets          nan                       # average number of cycles each access was blocked
system.cpu.dcache.fast_writes                       0                       # number of fast writes performed
system.cpu.dcache.cache_copies                      0                       # number of cache copies performed
system.cpu.dcache.writebacks::writebacks       958459                       # number of writebacks
system.cpu.dcache.writebacks::total            958459                       # number of writebacks
system.cpu.dcache.ReadReq_mshr_misses::cpu.data      1439254                       # number of ReadReq MSHR misses
system.cpu.dcache.ReadReq_mshr_misses::total      1439254                       # number of ReadReq MSHR misses
system.cpu.dcache.WriteReq_mshr_misses::cpu.data       588985                       # number of WriteReq MSHR misses
system.cpu.dcache.WriteReq_mshr_misses::total       588985                       # number of WriteReq MSHR misses
system.cpu.dcache.SoftPFReq_mshr_misses::cpu.data        16384                       # number of SoftPFReq MSHR misses
system.cpu.dcache.SoftPFReq_mshr_misses::total        16384                       # number of SoftPFReq MSHR misses
system.cpu.dcache.demand_mshr_misses::cpu.data      2028239                       # number of demand (read+write) MSHR misses
system.cpu.dcache.demand_mshr_misses::total      2028239                       # number of demand (read+write) MSHR misses
system.cpu.dcache.overall_mshr_misses::cpu.data      2044623                       # number of overall MSHR misses
system.cpu.dcache.overall_mshr_misses::total      2044623                       # number of overall MSHR misses
system.cpu.dcache.ReadReq_mshr_miss_latency::cpu.data  38933199500                       # number of ReadReq MSHR miss cycles
system.cpu.dcache.ReadReq_mshr_miss_latency::total  38933199500                       # number of ReadReq MSHR miss cycles
system.cpu.dcache.WriteReq_mshr_miss_latency::cpu.data  30839946500                       # number of WriteReq MSHR miss cycles
system.cpu.dcache.WriteReq_mshr_miss_latency::total  30839946500                       # number of WriteReq MSHR miss cycles
system.cpu.dcache.SoftPFReq_mshr_miss_latency::cpu.data   1291420459                       # number of SoftPFReq MSHR miss cycles
system.cpu.dcache.SoftPFReq_mshr_miss_latency::total   1291420459                       # number of SoftPFReq MSHR miss cycles
system.cpu.dcache.demand_mshr_miss_latency::cpu.data  69773146000                       # number of demand (read+write) MSHR miss cycles
system.cpu.dcache.demand_mshr_miss_latency::total  69773146000                       # number of demand (read+write) MSHR miss cycles
system.cpu.dcache.overall_mshr_miss_latency::cpu.data  71064566459                       # number of overall MSHR miss cycles
system.cpu.dcache.overall_mshr_miss_latency::total  71064566459                       # number of overall MSHR miss cycles
system.cpu.dcache.ReadReq_mshr_miss_rate::cpu.data     0.006370                       # mshr miss rate for ReadReq accesses
system.cpu.dcache.ReadReq_mshr_miss_rate::total     0.006370                       # mshr miss rate for ReadReq accesses
system.cpu.dcache.WriteReq_mshr_miss_rate::cpu.data     0.008409                       # mshr miss rate for WriteReq accesses
system.cpu.dcache.WriteReq_mshr_miss_rate::total     0.008409                       # mshr miss rate for WriteReq accesses
system.cpu.dcache.SoftPFReq_mshr_miss_rate::cpu.data            1                       # mshr miss rate for SoftPFReq accesses
system.cpu.dcache.SoftPFReq_mshr_miss_rate::total            1                       # mshr miss rate for SoftPFReq accesses
system.cpu.dcache.demand_mshr_miss_rate::cpu.data     0.006853                       # mshr miss rate for demand accesses
system.cpu.dcache.demand_mshr_miss_rate::total     0.006853                       # mshr miss rate for demand accesses
system.cpu.dcache.overall_mshr_miss_rate::cpu.data     0.006908                       # mshr miss rate for overall accesses
system.cpu.dcache.overall_mshr_miss_rate::total     0.006908                       # mshr miss rate for overall accesses
system.cpu.dcache.ReadReq_avg_mshr_miss_latency::cpu.data 27050.957996                       # average ReadReq mshr miss latency
system.cpu.dcache.ReadReq_avg_mshr_miss_latency::total 27050.957996                       # average ReadReq mshr miss latency
system.cpu.dcache.WriteReq_avg_mshr_miss_latency::cpu.data 52361.174733                       # average WriteReq mshr miss latency
system.cpu.dcache.WriteReq_avg_mshr_miss_latency::total 52361.174733                       # average WriteReq mshr miss latency
system.cpu.dcache.SoftPFReq_avg_mshr_miss_latency::cpu.data 78822.049500                       # average SoftPFReq mshr miss latency
system.cpu.dcache.SoftPFReq_avg_mshr_miss_latency::total 78822.049500                       # average SoftPFReq mshr miss latency
system.cpu.dcache.demand_avg_mshr_miss_latency::cpu.data 34400.850196                       # average overall mshr miss latency
system.cpu.dcache.demand_avg_mshr_miss_latency::total 34400.850196                       # average overall mshr miss latency
system.cpu.dcache.overall_avg_mshr_miss_latency::cpu.data 34756.806736                       # average overall mshr miss latency
system.cpu.dcache.overall_avg_mshr_miss_latency::total 34756.806736                       # average overall mshr miss latency
system.cpu.dcache.no_allocate_misses                0                       # Number of misses that were no-allocate
system.cpu.dtb_walker_cache.tags.replacements            0                       # number of replacements
system.cpu.dtb_walker_cache.tags.tagsinuse            0                       # Cycle average of tags in use
system.cpu.dtb_walker_cache.tags.total_refs            0                       # Total number of references to valid blocks.
system.cpu.dtb_walker_cache.tags.sampled_refs            0                       # Sample count of references to valid blocks.
system.cpu.dtb_walker_cache.tags.avg_refs          nan                       # Average number of references to valid blocks.
system.cpu.dtb_walker_cache.tags.warmup_cycle            0                       # Cycle when the warmup percentage was hit.
system.cpu.dtb_walker_cache.tags.tag_accesses            0                       # Number of tag accesses
system.cpu.dtb_walker_cache.tags.data_accesses            0                       # Number of data accesses
system.cpu.dtb_walker_cache.blocked_cycles::no_mshrs            0                       # number of cycles access was blocked
system.cpu.dtb_walker_cache.blocked_cycles::no_targets            0                       # number of cycles access was blocked
system.cpu.dtb_walker_cache.blocked::no_mshrs            0                       # number of cycles access was blocked
system.cpu.dtb_walker_cache.blocked::no_targets            0                       # number of cycles access was blocked
system.cpu.dtb_walker_cache.avg_blocked_cycles::no_mshrs          nan                       # average number of cycles each access was blocked
system.cpu.dtb_walker_cache.avg_blocked_cycles::no_targets          nan                       # average number of cycles each access was blocked
system.cpu.dtb_walker_cache.fast_writes             0                       # number of fast writes performed
system.cpu.dtb_walker_cache.cache_copies            0                       # number of cache copies performed
system.cpu.dtb_walker_cache.no_allocate_misses            0                       # Number of misses that were no-allocate
system.cpu.icache.tags.replacements                45                       # number of replacements
system.cpu.icache.tags.tagsinuse           663.880180                       # Cycle average of tags in use
system.cpu.icache.tags.total_refs           687396869                       # Total number of references to valid blocks.
system.cpu.icache.tags.sampled_refs               994                       # Sample count of references to valid blocks.
system.cpu.icache.tags.avg_refs          691546.145875                       # Average number of references to valid blocks.
system.cpu.icache.tags.warmup_cycle                 0                       # Cycle when the warmup percentage was hit.
system.cpu.icache.tags.occ_blocks::cpu.inst   663.880180                       # Average occupied blocks per requestor
system.cpu.icache.tags.occ_percent::cpu.inst     0.324160                       # Average percentage of cache occupancy
system.cpu.icache.tags.occ_percent::total     0.324160                       # Average percentage of cache occupancy
system.cpu.icache.tags.occ_task_id_blocks::1024          949                       # Occupied blocks per task id
system.cpu.icache.tags.age_task_id_blocks_1024::1            7                       # Occupied blocks per task id
system.cpu.icache.tags.age_task_id_blocks_1024::3           25                       # Occupied blocks per task id
system.cpu.icache.tags.age_task_id_blocks_1024::4          917                       # Occupied blocks per task id
system.cpu.icache.tags.occ_task_id_percent::1024     0.463379                       # Percentage of cache occupancy per task id
system.cpu.icache.tags.tag_accesses        1374796720                       # Number of tag accesses
system.cpu.icache.tags.data_accesses       1374796720                       # Number of data accesses
system.cpu.icache.ReadReq_hits::cpu.inst    687396869                       # number of ReadReq hits
system.cpu.icache.ReadReq_hits::total       687396869                       # number of ReadReq hits
system.cpu.icache.demand_hits::cpu.inst     687396869                       # number of demand (read+write) hits
system.cpu.icache.demand_hits::total        687396869                       # number of demand (read+write) hits
system.cpu.icache.overall_hits::cpu.inst    687396869                       # number of overall hits
system.cpu.icache.overall_hits::total       687396869                       # number of overall hits
system.cpu.icache.ReadReq_misses::cpu.inst          994                       # number of ReadReq misses
system.cpu.icache.ReadReq_misses::total           994                       # number of ReadReq misses
system.cpu.icache.demand_misses::cpu.inst          994                       # number of demand (read+write) misses
system.cpu.icache.demand_misses::total            994                       # number of demand (read+write) misses
system.cpu.icache.overall_misses::cpu.inst          994                       # number of overall misses
system.cpu.icache.overall_misses::total           994                       # number of overall misses
system.cpu.icache.ReadReq_miss_latency::cpu.inst     79108500                       # number of ReadReq miss cycles
system.cpu.icache.ReadReq_miss_latency::total     79108500                       # number of ReadReq miss cycles
system.cpu.icache.demand_miss_latency::cpu.inst     79108500                       # number of demand (read+write) miss cycles
system.cpu.icache.demand_miss_latency::total     79108500                       # number of demand (read+write) miss cycles
system.cpu.icache.overall_miss_latency::cpu.inst     79108500                       # number of overall miss cycles
system.cpu.icache.overall_miss_latency::total     79108500                       # number of overall miss cycles
system.cpu.icache.ReadReq_accesses::cpu.inst    687397863                       # number of ReadReq accesses(hits+misses)
system.cpu.icache.ReadReq_accesses::total    687397863                       # number of ReadReq accesses(hits+misses)
system.cpu.icache.demand_accesses::cpu.inst    687397863                       # number of demand (read+write) accesses
system.cpu.icache.demand_accesses::total    687397863                       # number of demand (read+write) accesses
system.cpu.icache.overall_accesses::cpu.inst    687397863                       # number of overall (read+write) accesses
system.cpu.icache.overall_accesses::total    687397863                       # number of overall (read+write) accesses
system.cpu.icache.ReadReq_miss_rate::cpu.inst     0.000001                       # miss rate for ReadReq accesses
system.cpu.icache.ReadReq_miss_rate::total     0.000001                       # miss rate for ReadReq accesses
system.cpu.icache.demand_miss_rate::cpu.inst     0.000001                       # miss rate for demand accesses
system.cpu.icache.demand_miss_rate::total     0.000001                       # miss rate for demand accesses
system.cpu.icache.overall_miss_rate::cpu.inst     0.000001                       # miss rate for overall accesses
system.cpu.icache.overall_miss_rate::total     0.000001                       # miss rate for overall accesses
system.cpu.icache.ReadReq_avg_miss_latency::cpu.inst 79586.016097                       # average ReadReq miss latency
system.cpu.icache.ReadReq_avg_miss_latency::total 79586.016097                       # average ReadReq miss latency
system.cpu.icache.demand_avg_miss_latency::cpu.inst 79586.016097                       # average overall miss latency
system.cpu.icache.demand_avg_miss_latency::total 79586.016097                       # average overall miss latency
system.cpu.icache.overall_avg_miss_latency::cpu.inst 79586.016097                       # average overall miss latency
system.cpu.icache.overall_avg_miss_latency::total 79586.016097                       # average overall miss latency
system.cpu.icache.blocked_cycles::no_mshrs            0                       # number of cycles access was blocked
system.cpu.icache.blocked_cycles::no_targets            0                       # number of cycles access was blocked
system.cpu.icache.blocked::no_mshrs                 0                       # number of cycles access was blocked
system.cpu.icache.blocked::no_targets               0                       # number of cycles access was blocked
system.cpu.icache.avg_blocked_cycles::no_mshrs          nan                       # average number of cycles each access was blocked
system.cpu.icache.avg_blocked_cycles::no_targets          nan                       # average number of cycles each access was blocked
system.cpu.icache.fast_writes                       0                       # number of fast writes performed
system.cpu.icache.cache_copies                      0                       # number of cache copies performed
system.cpu.icache.writebacks::writebacks           45                       # number of writebacks
system.cpu.icache.writebacks::total                45                       # number of writebacks
system.cpu.icache.ReadReq_mshr_misses::cpu.inst          994                       # number of ReadReq MSHR misses
system.cpu.icache.ReadReq_mshr_misses::total          994                       # number of ReadReq MSHR misses
system.cpu.icache.demand_mshr_misses::cpu.inst          994                       # number of demand (read+write) MSHR misses
system.cpu.icache.demand_mshr_misses::total          994                       # number of demand (read+write) MSHR misses
system.cpu.icache.overall_mshr_misses::cpu.inst          994                       # number of overall MSHR misses
system.cpu.icache.overall_mshr_misses::total          994                       # number of overall MSHR misses
system.cpu.icache.ReadReq_mshr_miss_latency::cpu.inst     78114500                       # number of ReadReq MSHR miss cycles
system.cpu.icache.ReadReq_mshr_miss_latency::total     78114500                       # number of ReadReq MSHR miss cycles
system.cpu.icache.demand_mshr_miss_latency::cpu.inst     78114500                       # number of demand (read+write) MSHR miss cycles
system.cpu.icache.demand_mshr_miss_latency::total     78114500                       # number of demand (read+write) MSHR miss cycles
system.cpu.icache.overall_mshr_miss_latency::cpu.inst     78114500                       # number of overall MSHR miss cycles
system.cpu.icache.overall_mshr_miss_latency::total     78114500                       # number of overall MSHR miss cycles
system.cpu.icache.ReadReq_mshr_miss_rate::cpu.inst     0.000001                       # mshr miss rate for ReadReq accesses
system.cpu.icache.ReadReq_mshr_miss_rate::total     0.000001                       # mshr miss rate for ReadReq accesses
system.cpu.icache.demand_mshr_miss_rate::cpu.inst     0.000001                       # mshr miss rate for demand accesses
system.cpu.icache.demand_mshr_miss_rate::total     0.000001                       # mshr miss rate for demand accesses
system.cpu.icache.overall_mshr_miss_rate::cpu.inst     0.000001                       # mshr miss rate for overall accesses
system.cpu.icache.overall_mshr_miss_rate::total     0.000001                       # mshr miss rate for overall accesses
system.cpu.icache.ReadReq_avg_mshr_miss_latency::cpu.inst 78586.016097                       # average ReadReq mshr miss latency
system.cpu.icache.ReadReq_avg_mshr_miss_latency::total 78586.016097                       # average ReadReq mshr miss latency
system.cpu.icache.demand_avg_mshr_miss_latency::cpu.inst 78586.016097                       # average overall mshr miss latency
system.cpu.icache.demand_avg_mshr_miss_latency::total 78586.016097                       # average overall mshr miss latency
system.cpu.icache.overall_avg_mshr_miss_latency::cpu.inst 78586.016097                       # average overall mshr miss latency
system.cpu.icache.overall_avg_mshr_miss_latency::total 78586.016097                       # average overall mshr miss latency
system.cpu.icache.no_allocate_misses                0                       # Number of misses that were no-allocate
system.cpu.itb_walker_cache.tags.replacements            0                       # number of replacements
system.cpu.itb_walker_cache.tags.tagsinuse            0                       # Cycle average of tags in use
system.cpu.itb_walker_cache.tags.total_refs            0                       # Total number of references to valid blocks.
system.cpu.itb_walker_cache.tags.sampled_refs            0                       # Sample count of references to valid blocks.
system.cpu.itb_walker_cache.tags.avg_refs          nan                       # Average number of references to valid blocks.
system.cpu.itb_walker_cache.tags.warmup_cycle            0                       # Cycle when the warmup percentage was hit.
system.cpu.itb_walker_cache.tags.tag_accesses            0                       # Number of tag accesses
system.cpu.itb_walker_cache.tags.data_accesses            0                       # Number of data accesses
system.cpu.itb_walker_cache.blocked_cycles::no_mshrs            0                       # number of cycles access was blocked
system.cpu.itb_walker_cache.blocked_cycles::no_targets            0                       # number of cycles access was blocked
system.cpu.itb_walker_cache.blocked::no_mshrs            0                       # number of cycles access was blocked
system.cpu.itb_walker_cache.blocked::no_targets            0                       # number of cycles access was blocked
system.cpu.itb_walker_cache.avg_blocked_cycles::no_mshrs          nan                       # average number of cycles each access was blocked
system.cpu.itb_walker_cache.avg_blocked_cycles::no_targets          nan                       # average number of cycles each access was blocked
system.cpu.itb_walker_cache.fast_writes             0                       # number of fast writes performed
system.cpu.itb_walker_cache.cache_copies            0                       # number of cache copies performed
system.cpu.itb_walker_cache.no_allocate_misses            0                       # Number of misses that were no-allocate
system.l2.tags.replacements                    620607                       # number of replacements
system.l2.tags.tagsinuse                 15740.454831                       # Cycle average of tags in use
system.l2.tags.total_refs                     2860810                       # Total number of references to valid blocks.
system.l2.tags.sampled_refs                    636687                       # Sample count of references to valid blocks.
system.l2.tags.avg_refs                      4.493275                       # Average number of references to valid blocks.
system.l2.tags.warmup_cycle                3963005000                       # Cycle when the warmup percentage was hit.
system.l2.tags.occ_blocks::writebacks     6015.647065                       # Average occupied blocks per requestor
system.l2.tags.occ_blocks::cpu.inst         34.690429                       # Average occupied blocks per requestor
system.l2.tags.occ_blocks::cpu.data       9690.117338                       # Average occupied blocks per requestor
system.l2.tags.occ_percent::writebacks       0.367166                       # Average percentage of cache occupancy
system.l2.tags.occ_percent::cpu.inst         0.002117                       # Average percentage of cache occupancy
system.l2.tags.occ_percent::cpu.data         0.591438                       # Average percentage of cache occupancy
system.l2.tags.occ_percent::total            0.960721                       # Average percentage of cache occupancy
system.l2.tags.occ_task_id_blocks::1024         16080                       # Occupied blocks per task id
system.l2.tags.age_task_id_blocks_1024::1            9                       # Occupied blocks per task id
system.l2.tags.age_task_id_blocks_1024::2           11                       # Occupied blocks per task id
system.l2.tags.age_task_id_blocks_1024::3           40                       # Occupied blocks per task id
system.l2.tags.age_task_id_blocks_1024::4        16020                       # Occupied blocks per task id
system.l2.tags.occ_task_id_percent::1024     0.981445                       # Percentage of cache occupancy per task id
system.l2.tags.tag_accesses                  17578616                       # Number of tag accesses
system.l2.tags.data_accesses                 17578616                       # Number of data accesses
system.l2.WritebackDirty_hits::writebacks       958459                       # number of WritebackDirty hits
system.l2.WritebackDirty_hits::total           958459                       # number of WritebackDirty hits
system.l2.WritebackClean_hits::writebacks           45                       # number of WritebackClean hits
system.l2.WritebackClean_hits::total               45                       # number of WritebackClean hits
system.l2.ReadExReq_hits::cpu.data             271033                       # number of ReadExReq hits
system.l2.ReadExReq_hits::total                271033                       # number of ReadExReq hits
system.l2.ReadCleanReq_hits::cpu.inst               1                       # number of ReadCleanReq hits
system.l2.ReadCleanReq_hits::total                  1                       # number of ReadCleanReq hits
system.l2.ReadSharedReq_hits::cpu.data        1137573                       # number of ReadSharedReq hits
system.l2.ReadSharedReq_hits::total           1137573                       # number of ReadSharedReq hits
system.l2.demand_hits::cpu.inst                     1                       # number of demand (read+write) hits
system.l2.demand_hits::cpu.data               1408606                       # number of demand (read+write) hits
system.l2.demand_hits::total                  1408607                       # number of demand (read+write) hits
system.l2.overall_hits::cpu.inst                    1                       # number of overall hits
system.l2.overall_hits::cpu.data              1408606                       # number of overall hits
system.l2.overall_hits::total                 1408607                       # number of overall hits
system.l2.ReadExReq_misses::cpu.data           317952                       # number of ReadExReq misses
system.l2.ReadExReq_misses::total              317952                       # number of ReadExReq misses
system.l2.ReadCleanReq_misses::cpu.inst           993                       # number of ReadCleanReq misses
system.l2.ReadCleanReq_misses::total              993                       # number of ReadCleanReq misses
system.l2.ReadSharedReq_misses::cpu.data       318065                       # number of ReadSharedReq misses
system.l2.ReadSharedReq_misses::total          318065                       # number of ReadSharedReq misses
system.l2.demand_misses::cpu.inst                 993                       # number of demand (read+write) misses
system.l2.demand_misses::cpu.data              636017                       # number of demand (read+write) misses
system.l2.demand_misses::total                 637010                       # number of demand (read+write) misses
system.l2.overall_misses::cpu.inst                993                       # number of overall misses
system.l2.overall_misses::cpu.data             636017                       # number of overall misses
system.l2.overall_misses::total                637010                       # number of overall misses
system.l2.ReadExReq_miss_latency::cpu.data  27110621500                       # number of ReadExReq miss cycles
system.l2.ReadExReq_miss_latency::total   27110621500                       # number of ReadExReq miss cycles
system.l2.ReadCleanReq_miss_latency::cpu.inst     76611500                       # number of ReadCleanReq miss cycles
system.l2.ReadCleanReq_miss_latency::total     76611500                       # number of ReadCleanReq miss cycles
system.l2.ReadSharedReq_miss_latency::cpu.data  26096552000                       # number of ReadSharedReq miss cycles
system.l2.ReadSharedReq_miss_latency::total  26096552000                       # number of ReadSharedReq miss cycles
system.l2.demand_miss_latency::cpu.inst      76611500                       # number of demand (read+write) miss cycles
system.l2.demand_miss_latency::cpu.data   53207173500                       # number of demand (read+write) miss cycles
system.l2.demand_miss_latency::total      53283785000                       # number of demand (read+write) miss cycles
system.l2.overall_miss_latency::cpu.inst     76611500                       # number of overall miss cycles
system.l2.overall_miss_latency::cpu.data  53207173500                       # number of overall miss cycles
system.l2.overall_miss_latency::total     53283785000                       # number of overall miss cycles
system.l2.WritebackDirty_accesses::writebacks       958459                       # number of WritebackDirty accesses(hits+misses)
system.l2.WritebackDirty_accesses::total       958459                       # number of WritebackDirty accesses(hits+misses)
system.l2.WritebackClean_accesses::writebacks           45                       # number of WritebackClean accesses(hits+misses)
system.l2.WritebackClean_accesses::total           45                       # number of WritebackClean accesses(hits+misses)
system.l2.ReadExReq_accesses::cpu.data         588985                       # number of ReadExReq accesses(hits+misses)
system.l2.ReadExReq_accesses::total            588985                       # number of ReadExReq accesses(hits+misses)
system.l2.ReadCleanReq_accesses::cpu.inst          994                       # number of ReadCleanReq accesses(hits+misses)
system.l2.ReadCleanReq_accesses::total            994                       # number of ReadCleanReq accesses(hits+misses)
system.l2.ReadSharedReq_accesses::cpu.data      1455638                       # number of ReadSharedReq accesses(hits+misses)
system.l2.ReadSharedReq_accesses::total       1455638                       # number of ReadSharedReq accesses(hits+misses)
system.l2.demand_accesses::cpu.inst               994                       # number of demand (read+write) accesses
system.l2.demand_accesses::cpu.data           2044623                       # number of demand (read+write) accesses
system.l2.demand_accesses::total              2045617                       # number of demand (read+write) accesses
system.l2.overall_accesses::cpu.inst              994                       # number of overall (read+write) accesses
system.l2.overall_accesses::cpu.data          2044623                       # number of overall (read+write) accesses
system.l2.overall_accesses::total             2045617                       # number of overall (read+write) accesses
system.l2.ReadExReq_miss_rate::cpu.data      0.539830                       # miss rate for ReadExReq accesses
system.l2.ReadExReq_miss_rate::total         0.539830                       # miss rate for ReadExReq accesses
system.l2.ReadCleanReq_miss_rate::cpu.inst     0.998994                       # miss rate for ReadCleanReq accesses
system.l2.ReadCleanReq_miss_rate::total      0.998994                       # miss rate for ReadCleanReq accesses
system.l2.ReadSharedReq_miss_rate::cpu.data     0.218506                       # miss rate for ReadSharedReq accesses
system.l2.ReadSharedReq_miss_rate::total     0.218506                       # miss rate for ReadSharedReq accesses
system.l2.demand_miss_rate::cpu.inst         0.998994                       # miss rate for demand accesses
system.l2.demand_miss_rate::cpu.data         0.311068                       # miss rate for demand accesses
system.l2.demand_miss_rate::total            0.311402                       # miss rate for demand accesses
system.l2.overall_miss_rate::cpu.inst        0.998994                       # miss rate for overall accesses
system.l2.overall_miss_rate::cpu.data        0.311068                       # miss rate for overall accesses
system.l2.overall_miss_rate::total           0.311402                       # miss rate for overall accesses
system.l2.ReadExReq_avg_miss_latency::cpu.data 85266.397129                       # average ReadExReq miss latency
system.l2.ReadExReq_avg_miss_latency::total 85266.397129                       # average ReadExReq miss latency
system.l2.ReadCleanReq_avg_miss_latency::cpu.inst 77151.560926                       # average ReadCleanReq miss latency
system.l2.ReadCleanReq_avg_miss_latency::total 77151.560926                       # average ReadCleanReq miss latency
system.l2.ReadSharedReq_avg_miss_latency::cpu.data 82047.858142                       # average ReadSharedReq miss latency
system.l2.ReadSharedReq_avg_miss_latency::total 82047.858142                       # average ReadSharedReq miss latency
system.l2.demand_avg_miss_latency::cpu.inst 77151.560926                       # average overall miss latency
system.l2.demand_avg_miss_latency::cpu.data 83656.841720                       # average overall miss latency
system.l2.demand_avg_miss_latency::total 83646.700994                       # average overall miss latency
system.l2.overall_avg_miss_latency::cpu.inst 77151.560926                       # average overall miss latency
system.l2.overall_avg_miss_latency::cpu.data 83656.841720                       # average overall miss latency
system.l2.overall_avg_miss_latency::total 83646.700994                       # average overall miss latency
system.l2.blocked_cycles::no_mshrs                  0                       # number of cycles access was blocked
system.l2.blocked_cycles::no_targets                0                       # number of cycles access was blocked
system.l2.blocked::no_mshrs                         0                       # number of cycles access was blocked
system.l2.blocked::no_targets                       0                       # number of cycles access was blocked
system.l2.avg_blocked_cycles::no_mshrs            nan                       # average number of cycles each access was blocked
system.l2.avg_blocked_cycles::no_targets          nan                       # average number of cycles each access was blocked
system.l2.fast_writes                               0                       # number of fast writes performed
system.l2.cache_copies                              0                       # number of cache copies performed
system.l2.writebacks::writebacks               383559                       # number of writebacks
system.l2.writebacks::total                    383559                       # number of writebacks
system.l2.CleanEvict_mshr_misses::writebacks         1434                       # number of CleanEvict MSHR misses
system.l2.CleanEvict_mshr_misses::total          1434                       # number of CleanEvict MSHR misses
system.l2.ReadExReq_mshr_misses::cpu.data       317952                       # number of ReadExReq MSHR misses
system.l2.ReadExReq_mshr_misses::total         317952                       # number of ReadExReq MSHR misses
system.l2.ReadCleanReq_mshr_misses::cpu.inst          993                       # number of ReadCleanReq MSHR misses
system.l2.ReadCleanReq_mshr_misses::total          993                       # number of ReadCleanReq MSHR misses
system.l2.ReadSharedReq_mshr_misses::cpu.data       318065                       # number of ReadSharedReq MSHR misses
system.l2.ReadSharedReq_mshr_misses::total       318065                       # number of ReadSharedReq MSHR misses
system.l2.demand_mshr_misses::cpu.inst            993                       # number of demand (read+write) MSHR misses
system.l2.demand_mshr_misses::cpu.data         636017                       # number of demand (read+write) MSHR misses
system.l2.demand_mshr_misses::total            637010                       # number of demand (read+write) MSHR misses
system.l2.overall_mshr_misses::cpu.inst           993                       # number of overall MSHR misses
system.l2.overall_mshr_misses::cpu.data        636017                       # number of overall MSHR misses
system.l2.overall_mshr_misses::total           637010                       # number of overall MSHR misses
system.l2.ReadExReq_mshr_miss_latency::cpu.data  23931101500                       # number of ReadExReq MSHR miss cycles
system.l2.ReadExReq_mshr_miss_latency::total  23931101500                       # number of ReadExReq MSHR miss cycles
system.l2.ReadCleanReq_mshr_miss_latency::cpu.inst     66681500                       # number of ReadCleanReq MSHR miss cycles
system.l2.ReadCleanReq_mshr_miss_latency::total     66681500                       # number of ReadCleanReq MSHR miss cycles
system.l2.ReadSharedReq_mshr_miss_latency::cpu.data  22915902000                       # number of ReadSharedReq MSHR miss cycles
system.l2.ReadSharedReq_mshr_miss_latency::total  22915902000                       # number of ReadSharedReq MSHR miss cycles
system.l2.demand_mshr_miss_latency::cpu.inst     66681500                       # number of demand (read+write) MSHR miss cycles
system.l2.demand_mshr_miss_latency::cpu.data  46847003500                       # number of demand (read+write) MSHR miss cycles
system.l2.demand_mshr_miss_latency::total  46913685000                       # number of demand (read+write) MSHR miss cycles
system.l2.overall_mshr_miss_latency::cpu.inst     66681500                       # number of overall MSHR miss cycles
system.l2.overall_mshr_miss_latency::cpu.data  46847003500                       # number of overall MSHR miss cycles
system.l2.overall_mshr_miss_latency::total  46913685000                       # number of overall MSHR miss cycles
system.l2.CleanEvict_mshr_miss_rate::writebacks          inf                       # mshr miss rate for CleanEvict accesses
system.l2.CleanEvict_mshr_miss_rate::total          inf                       # mshr miss rate for CleanEvict accesses
system.l2.ReadExReq_mshr_miss_rate::cpu.data     0.539830                       # mshr miss rate for ReadExReq accesses
system.l2.ReadExReq_mshr_miss_rate::total     0.539830                       # mshr miss rate for ReadExReq accesses
system.l2.ReadCleanReq_mshr_miss_rate::cpu.inst     0.998994                       # mshr miss rate for ReadCleanReq accesses
system.l2.ReadCleanReq_mshr_miss_rate::total     0.998994                       # mshr miss rate for ReadCleanReq accesses
system.l2.ReadSharedReq_mshr_miss_rate::cpu.data     0.218506                       # mshr miss rate for ReadSharedReq accesses
system.l2.ReadSharedReq_mshr_miss_rate::total     0.218506                       # mshr miss rate for ReadSharedReq accesses
system.l2.demand_mshr_miss_rate::cpu.inst     0.998994                       # mshr miss rate for demand accesses
system.l2.demand_mshr_miss_rate::cpu.data     0.311068                       # mshr miss rate for demand accesses
system.l2.demand_mshr_miss_rate::total       0.311402                       # mshr miss rate for demand accesses
system.l2.overall_mshr_miss_rate::cpu.inst     0.998994                       # mshr miss rate for overall accesses
system.l2.overall_mshr_miss_rate::cpu.data     0.311068                       # mshr miss rate for overall accesses
system.l2.overall_mshr_miss_rate::total      0.311402                       # mshr miss rate for overall accesses
system.l2.ReadExReq_avg_mshr_miss_latency::cpu.data 75266.397129                       # average ReadExReq mshr miss latency
system.l2.ReadExReq_avg_mshr_miss_latency::total 75266.397129                       # average ReadExReq mshr miss latency
system.l2.ReadCleanReq_avg_mshr_miss_latency::cpu.inst 67151.560926                       # average ReadCleanReq mshr miss latency
system.l2.ReadCleanReq_avg_mshr_miss_latency::total 67151.560926                       # average ReadCleanReq mshr miss latency
system.l2.ReadSharedReq_avg_mshr_miss_latency::cpu.data 72047.858142                       # average ReadSharedReq mshr miss latency
system.l2.ReadSharedReq_avg_mshr_miss_latency::total 72047.858142                       # average ReadSharedReq mshr miss latency
system.l2.demand_avg_mshr_miss_latency::cpu.inst 67151.560926                       # average overall mshr miss latency
system.l2.demand_avg_mshr_miss_latency::cpu.data 73656.841720                       # average overall mshr miss latency
system.l2.demand_avg_mshr_miss_latency::total 73646.700994                       # average overall mshr miss latency
system.l2.overall_avg_mshr_miss_latency::cpu.inst 67151.560926                       # average overall mshr miss latency
system.l2.overall_avg_mshr_miss_latency::cpu.data 73656.841720                       # average overall mshr miss latency
system.l2.overall_avg_mshr_miss_latency::total 73646.700994                       # average overall mshr miss latency
system.l2.no_allocate_misses                        0                       # Number of misses that were no-allocate
system.membus.trans_dist::ReadResp             319058                       # Transaction distribution
system.membus.trans_dist::WritebackDirty       383559                       # Transaction distribution
system.membus.trans_dist::CleanEvict           236150                       # Transaction distribution
system.membus.trans_dist::ReadExReq            317952                       # Transaction distribution
system.membus.trans_dist::ReadExResp           317952                       # Transaction distribution
system.membus.trans_dist::ReadSharedReq        319058                       # Transaction distribution
system.membus.pkt_count_system.l2.mem_side::system.mem_ctrls.port      1893729                       # Packet count per connected master and slave (bytes)
system.membus.pkt_count_system.l2.mem_side::total      1893729                       # Packet count per connected master and slave (bytes)
system.membus.pkt_count::total                1893729                       # Packet count per connected master and slave (bytes)
system.membus.pkt_size_system.l2.mem_side::system.mem_ctrls.port     65316416                       # Cumulative packet size per connected master and slave (bytes)
system.membus.pkt_size_system.l2.mem_side::total     65316416                       # Cumulative packet size per connected master and slave (bytes)
system.membus.pkt_size::total                65316416                       # Cumulative packet size per connected master and slave (bytes)
system.membus.snoops                                0                       # Total snoops (count)
system.membus.snoop_fanout::samples           1256719                       # Request fanout histogram
system.membus.snoop_fanout::mean                    0                       # Request fanout histogram
system.membus.snoop_fanout::stdev                   0                       # Request fanout histogram
system.membus.snoop_fanout::underflows              0      0.00%      0.00% # Request fanout histogram
system.membus.snoop_fanout::0                 1256719    100.00%    100.00% # Request fanout histogram
system.membus.snoop_fanout::1                       0      0.00%    100.00% # Request fanout histogram
system.membus.snoop_fanout::overflows               0      0.00%    100.00% # Request fanout histogram
system.membus.snoop_fanout::min_value               0                       # Request fanout histogram
system.membus.snoop_fanout::max_value               0                       # Request fanout histogram
system.membus.snoop_fanout::total             1256719                       # Request fanout histogram
system.membus.reqLayer2.occupancy          2798945000                       # Layer occupancy (ticks)
system.membus.reqLayer2.utilization               0.3                       # Layer utilization (%)
system.membus.respLayer1.occupancy         3447933250                       # Layer occupancy (ticks)
system.membus.respLayer1.utilization              0.3                       # Layer utilization (%)
system.tol2bus.snoop_filter.tot_requests      4088237                       # Total number of requests made to the snoop filter.
system.tol2bus.snoop_filter.hit_single_requests      2042620                       # Number of requests hitting in the snoop filter with a single holder of the requested data.
system.tol2bus.snoop_filter.hit_multi_requests            1                       # Number of requests hitting in the snoop filter with multiple (>1) holders of the requested data.
system.tol2bus.snoop_filter.tot_snoops           2332                       # Total number of snoops made to the snoop filter.
system.tol2bus.snoop_filter.hit_single_snoops         2332                       # Number of snoops hitting in the snoop filter with a single holder of the requested data.
system.tol2bus.snoop_filter.hit_multi_snoops            0                       # Number of snoops hitting in the snoop filter with multiple (>1) holders of the requested data.
system.tol2bus.trans_dist::ReadResp           1456632                       # Transaction distribution
system.tol2bus.trans_dist::WritebackDirty      1342018                       # Transaction distribution
system.tol2bus.trans_dist::WritebackClean           45                       # Transaction distribution
system.tol2bus.trans_dist::CleanEvict         1321163                       # Transaction distribution
system.tol2bus.trans_dist::ReadExReq           588985                       # Transaction distribution
system.tol2bus.trans_dist::ReadExResp          588985                       # Transaction distribution
system.tol2bus.trans_dist::ReadCleanReq           994                       # Transaction distribution
system.tol2bus.trans_dist::ReadSharedReq      1455638                       # Transaction distribution
system.tol2bus.pkt_count_system.cpu.icache.mem_side::system.l2.cpu_side         2033                       # Packet count per connected master and slave (bytes)
system.tol2bus.pkt_count_system.cpu.dcache.mem_side::system.l2.cpu_side      6131820                       # Packet count per connected master and slave (bytes)
system.tol2bus.pkt_count::total               6133853                       # Packet count per connected master and slave (bytes)
system.tol2bus.pkt_size_system.cpu.icache.mem_side::system.l2.cpu_side        66496                       # Cumulative packet size per connected master and slave (bytes)
system.tol2bus.pkt_size_system.cpu.dcache.mem_side::system.l2.cpu_side    192197248                       # Cumulative packet size per connected master and slave (bytes)
system.tol2bus.pkt_size::total              192263744                       # Cumulative packet size per connected master and slave (bytes)
system.tol2bus.snoops                          620607                       # Total snoops (count)
system.tol2bus.snoop_fanout::samples          2666224                       # Request fanout histogram
system.tol2bus.snoop_fanout::mean            0.000875                       # Request fanout histogram
system.tol2bus.snoop_fanout::stdev           0.029568                       # Request fanout histogram
system.tol2bus.snoop_fanout::underflows             0      0.00%      0.00% # Request fanout histogram
system.tol2bus.snoop_fanout::0                2663891     99.91%     99.91% # Request fanout histogram
system.tol2bus.snoop_fanout::1                   2333      0.09%    100.00% # Request fanout histogram
system.tol2bus.snoop_fanout::2                      0      0.00%    100.00% # Request fanout histogram
system.tol2bus.snoop_fanout::3                      0      0.00%    100.00% # Request fanout histogram
system.tol2bus.snoop_fanout::4                      0      0.00%    100.00% # Request fanout histogram
system.tol2bus.snoop_fanout::overflows              0      0.00%    100.00% # Request fanout histogram
system.tol2bus.snoop_fanout::min_value              0                       # Request fanout histogram
system.tol2bus.snoop_fanout::max_value              1                       # Request fanout histogram
system.tol2bus.snoop_fanout::total            2666224                       # Request fanout histogram
system.tol2bus.reqLayer0.occupancy         3002622500                       # Layer occupancy (ticks)
system.tol2bus.reqLayer0.utilization              0.3                       # Layer utilization (%)
system.tol2bus.respLayer0.occupancy           1491000                       # Layer occupancy (ticks)
system.tol2bus.respLayer0.utilization             0.0                       # Layer utilization (%)
system.tol2bus.respLayer1.occupancy        3066934500                       # Layer occupancy (ticks)
system.tol2bus.respLayer1.utilization             0.3                       # Layer utilization (%)

---------- End Simulation Statistics   ----------
