
---------- Begin Simulation Statistics ----------
sim_seconds                                  1.896916                       # Number of seconds simulated
sim_ticks                                1896916153500                       # Number of ticks simulated
final_tick                               1896916153500                       # Number of ticks from beginning of simulation (restored from checkpoints and never reset)
sim_freq                                 1000000000000                       # Frequency of simulated ticks
host_inst_rate                                  34326                       # Simulator instruction rate (inst/s)
host_op_rate                                    60161                       # Simulator op (including micro ops) rate (op/s)
host_tick_rate                              130226798                       # Simulator tick rate (ticks/s)
host_mem_usage                                 824092                       # Number of bytes of host memory used
host_seconds                                 14566.25                       # Real time elapsed on the host
sim_insts                                   500000000                       # Number of instructions simulated
sim_ops                                     876313787                       # Number of ops (including micro ops) simulated
system.voltage_domain.voltage                       1                       # Voltage in Volts
system.clk_domain.clock                          1000                       # Clock period in ticks
system.mem_ctrls.bytes_read::cpu.inst           43264                       # Number of bytes read from this memory
system.mem_ctrls.bytes_read::cpu.data       634715648                       # Number of bytes read from this memory
system.mem_ctrls.bytes_read::total          634758912                       # Number of bytes read from this memory
system.mem_ctrls.bytes_inst_read::cpu.inst        43264                       # Number of instructions bytes read from this memory
system.mem_ctrls.bytes_inst_read::total         43264                       # Number of instructions bytes read from this memory
system.mem_ctrls.bytes_written::writebacks     86178240                       # Number of bytes written to this memory
system.mem_ctrls.bytes_written::total        86178240                       # Number of bytes written to this memory
system.mem_ctrls.num_reads::cpu.inst              676                       # Number of read requests responded to by this memory
system.mem_ctrls.num_reads::cpu.data          9917432                       # Number of read requests responded to by this memory
system.mem_ctrls.num_reads::total             9918108                       # Number of read requests responded to by this memory
system.mem_ctrls.num_writes::writebacks       1346535                       # Number of write requests responded to by this memory
system.mem_ctrls.num_writes::total            1346535                       # Number of write requests responded to by this memory
system.mem_ctrls.bw_read::cpu.inst              22808                       # Total read bandwidth from this memory (bytes/s)
system.mem_ctrls.bw_read::cpu.data          334603955                       # Total read bandwidth from this memory (bytes/s)
system.mem_ctrls.bw_read::total             334626763                       # Total read bandwidth from this memory (bytes/s)
system.mem_ctrls.bw_inst_read::cpu.inst         22808                       # Instruction read bandwidth from this memory (bytes/s)
system.mem_ctrls.bw_inst_read::total            22808                       # Instruction read bandwidth from this memory (bytes/s)
system.mem_ctrls.bw_write::writebacks        45430706                       # Write bandwidth from this memory (bytes/s)
system.mem_ctrls.bw_write::total             45430706                       # Write bandwidth from this memory (bytes/s)
system.mem_ctrls.bw_total::writebacks        45430706                       # Total bandwidth to/from this memory (bytes/s)
system.mem_ctrls.bw_total::cpu.inst             22808                       # Total bandwidth to/from this memory (bytes/s)
system.mem_ctrls.bw_total::cpu.data         334603955                       # Total bandwidth to/from this memory (bytes/s)
system.mem_ctrls.bw_total::total            380057469                       # Total bandwidth to/from this memory (bytes/s)
system.mem_ctrls.readReqs                     9918108                       # Number of read requests accepted
system.mem_ctrls.writeReqs                    1346535                       # Number of write requests accepted
system.mem_ctrls.readBursts                   9918108                       # Number of DRAM read bursts, including those serviced by the write queue
system.mem_ctrls.writeBursts                  1346535                       # Number of DRAM write bursts, including those merged in the write queue
system.mem_ctrls.bytesReadDRAM              630070144                       # Total number of bytes read from DRAM
system.mem_ctrls.bytesReadWrQ                 4688768                       # Total number of bytes read from write queue
system.mem_ctrls.bytesWritten                85499392                       # Total number of bytes written to DRAM
system.mem_ctrls.bytesReadSys               634758912                       # Total read bytes from the system interface side
system.mem_ctrls.bytesWrittenSys             86178240                       # Total written bytes from the system interface side
system.mem_ctrls.servicedByWrQ                  73262                       # Number of DRAM read bursts serviced by the write queue
system.mem_ctrls.mergedWrBursts                 10577                       # Number of DRAM write bursts merged with an existing one
system.mem_ctrls.neitherReadNorWriteReqs      8568696                       # Number of requests that are neither read nor write
system.mem_ctrls.perBankRdBursts::0            610219                       # Per bank write bursts
system.mem_ctrls.perBankRdBursts::1            598448                       # Per bank write bursts
system.mem_ctrls.perBankRdBursts::2            591021                       # Per bank write bursts
system.mem_ctrls.perBankRdBursts::3            661101                       # Per bank write bursts
system.mem_ctrls.perBankRdBursts::4            593791                       # Per bank write bursts
system.mem_ctrls.perBankRdBursts::5            589270                       # Per bank write bursts
system.mem_ctrls.perBankRdBursts::6            606825                       # Per bank write bursts
system.mem_ctrls.perBankRdBursts::7            592132                       # Per bank write bursts
system.mem_ctrls.perBankRdBursts::8            587318                       # Per bank write bursts
system.mem_ctrls.perBankRdBursts::9            594060                       # Per bank write bursts
system.mem_ctrls.perBankRdBursts::10           615747                       # Per bank write bursts
system.mem_ctrls.perBankRdBursts::11           700882                       # Per bank write bursts
system.mem_ctrls.perBankRdBursts::12           625323                       # Per bank write bursts
system.mem_ctrls.perBankRdBursts::13           623205                       # Per bank write bursts
system.mem_ctrls.perBankRdBursts::14           643139                       # Per bank write bursts
system.mem_ctrls.perBankRdBursts::15           612365                       # Per bank write bursts
system.mem_ctrls.perBankWrBursts::0             82156                       # Per bank write bursts
system.mem_ctrls.perBankWrBursts::1             82252                       # Per bank write bursts
system.mem_ctrls.perBankWrBursts::2             82496                       # Per bank write bursts
system.mem_ctrls.perBankWrBursts::3            104673                       # Per bank write bursts
system.mem_ctrls.perBankWrBursts::4             86587                       # Per bank write bursts
system.mem_ctrls.perBankWrBursts::5             77965                       # Per bank write bursts
system.mem_ctrls.perBankWrBursts::6             91650                       # Per bank write bursts
system.mem_ctrls.perBankWrBursts::7             76971                       # Per bank write bursts
system.mem_ctrls.perBankWrBursts::8             77971                       # Per bank write bursts
system.mem_ctrls.perBankWrBursts::9             76067                       # Per bank write bursts
system.mem_ctrls.perBankWrBursts::10            77913                       # Per bank write bursts
system.mem_ctrls.perBankWrBursts::11            86688                       # Per bank write bursts
system.mem_ctrls.perBankWrBursts::12            82547                       # Per bank write bursts
system.mem_ctrls.perBankWrBursts::13            83211                       # Per bank write bursts
system.mem_ctrls.perBankWrBursts::14            84474                       # Per bank write bursts
system.mem_ctrls.perBankWrBursts::15            82307                       # Per bank write bursts
system.mem_ctrls.numRdRetry                         0                       # Number of times read queue was full causing retry
system.mem_ctrls.numWrRetry                         0                       # Number of times write queue was full causing retry
system.mem_ctrls.totGap                  1896914022500                       # Total gap between requests
system.mem_ctrls.readPktSize::0                     0                       # Read request sizes (log2)
system.mem_ctrls.readPktSize::1                     0                       # Read request sizes (log2)
system.mem_ctrls.readPktSize::2                     0                       # Read request sizes (log2)
system.mem_ctrls.readPktSize::3                     0                       # Read request sizes (log2)
system.mem_ctrls.readPktSize::4                     0                       # Read request sizes (log2)
system.mem_ctrls.readPktSize::5                     0                       # Read request sizes (log2)
system.mem_ctrls.readPktSize::6               9918108                       # Read request sizes (log2)
system.mem_ctrls.writePktSize::0                    0                       # Write request sizes (log2)
system.mem_ctrls.writePktSize::1                    0                       # Write request sizes (log2)
system.mem_ctrls.writePktSize::2                    0                       # Write request sizes (log2)
system.mem_ctrls.writePktSize::3                    0                       # Write request sizes (log2)
system.mem_ctrls.writePktSize::4                    0                       # Write request sizes (log2)
system.mem_ctrls.writePktSize::5                    0                       # Write request sizes (log2)
system.mem_ctrls.writePktSize::6              1346535                       # Write request sizes (log2)
system.mem_ctrls.rdQLenPdf::0                 9844846                       # What read queue length does an incoming req see
system.mem_ctrls.rdQLenPdf::1                       0                       # What read queue length does an incoming req see
system.mem_ctrls.rdQLenPdf::2                       0                       # What read queue length does an incoming req see
system.mem_ctrls.rdQLenPdf::3                       0                       # What read queue length does an incoming req see
system.mem_ctrls.rdQLenPdf::4                       0                       # What read queue length does an incoming req see
system.mem_ctrls.rdQLenPdf::5                       0                       # What read queue length does an incoming req see
system.mem_ctrls.rdQLenPdf::6                       0                       # What read queue length does an incoming req see
system.mem_ctrls.rdQLenPdf::7                       0                       # What read queue length does an incoming req see
system.mem_ctrls.rdQLenPdf::8                       0                       # What read queue length does an incoming req see
system.mem_ctrls.rdQLenPdf::9                       0                       # What read queue length does an incoming req see
system.mem_ctrls.rdQLenPdf::10                      0                       # What read queue length does an incoming req see
system.mem_ctrls.rdQLenPdf::11                      0                       # What read queue length does an incoming req see
system.mem_ctrls.rdQLenPdf::12                      0                       # What read queue length does an incoming req see
system.mem_ctrls.rdQLenPdf::13                      0                       # What read queue length does an incoming req see
system.mem_ctrls.rdQLenPdf::14                      0                       # What read queue length does an incoming req see
system.mem_ctrls.rdQLenPdf::15                      0                       # What read queue length does an incoming req see
system.mem_ctrls.rdQLenPdf::16                      0                       # What read queue length does an incoming req see
system.mem_ctrls.rdQLenPdf::17                      0                       # What read queue length does an incoming req see
system.mem_ctrls.rdQLenPdf::18                      0                       # What read queue length does an incoming req see
system.mem_ctrls.rdQLenPdf::19                      0                       # What read queue length does an incoming req see
system.mem_ctrls.rdQLenPdf::20                      0                       # What read queue length does an incoming req see
system.mem_ctrls.rdQLenPdf::21                      0                       # What read queue length does an incoming req see
system.mem_ctrls.rdQLenPdf::22                      0                       # What read queue length does an incoming req see
system.mem_ctrls.rdQLenPdf::23                      0                       # What read queue length does an incoming req see
system.mem_ctrls.rdQLenPdf::24                      0                       # What read queue length does an incoming req see
system.mem_ctrls.rdQLenPdf::25                      0                       # What read queue length does an incoming req see
system.mem_ctrls.rdQLenPdf::26                      0                       # What read queue length does an incoming req see
system.mem_ctrls.rdQLenPdf::27                      0                       # What read queue length does an incoming req see
system.mem_ctrls.rdQLenPdf::28                      0                       # What read queue length does an incoming req see
system.mem_ctrls.rdQLenPdf::29                      0                       # What read queue length does an incoming req see
system.mem_ctrls.rdQLenPdf::30                      0                       # What read queue length does an incoming req see
system.mem_ctrls.rdQLenPdf::31                      0                       # What read queue length does an incoming req see
system.mem_ctrls.wrQLenPdf::0                       1                       # What write queue length does an incoming req see
system.mem_ctrls.wrQLenPdf::1                       1                       # What write queue length does an incoming req see
system.mem_ctrls.wrQLenPdf::2                       1                       # What write queue length does an incoming req see
system.mem_ctrls.wrQLenPdf::3                       1                       # What write queue length does an incoming req see
system.mem_ctrls.wrQLenPdf::4                       1                       # What write queue length does an incoming req see
system.mem_ctrls.wrQLenPdf::5                       1                       # What write queue length does an incoming req see
system.mem_ctrls.wrQLenPdf::6                       1                       # What write queue length does an incoming req see
system.mem_ctrls.wrQLenPdf::7                       1                       # What write queue length does an incoming req see
system.mem_ctrls.wrQLenPdf::8                       1                       # What write queue length does an incoming req see
system.mem_ctrls.wrQLenPdf::9                       1                       # What write queue length does an incoming req see
system.mem_ctrls.wrQLenPdf::10                      1                       # What write queue length does an incoming req see
system.mem_ctrls.wrQLenPdf::11                      1                       # What write queue length does an incoming req see
system.mem_ctrls.wrQLenPdf::12                      1                       # What write queue length does an incoming req see
system.mem_ctrls.wrQLenPdf::13                      1                       # What write queue length does an incoming req see
system.mem_ctrls.wrQLenPdf::14                      1                       # What write queue length does an incoming req see
system.mem_ctrls.wrQLenPdf::15                  24014                       # What write queue length does an incoming req see
system.mem_ctrls.wrQLenPdf::16                  25774                       # What write queue length does an incoming req see
system.mem_ctrls.wrQLenPdf::17                  80485                       # What write queue length does an incoming req see
system.mem_ctrls.wrQLenPdf::18                  80439                       # What write queue length does an incoming req see
system.mem_ctrls.wrQLenPdf::19                  80379                       # What write queue length does an incoming req see
system.mem_ctrls.wrQLenPdf::20                  80376                       # What write queue length does an incoming req see
system.mem_ctrls.wrQLenPdf::21                  80376                       # What write queue length does an incoming req see
system.mem_ctrls.wrQLenPdf::22                  80373                       # What write queue length does an incoming req see
system.mem_ctrls.wrQLenPdf::23                  80376                       # What write queue length does an incoming req see
system.mem_ctrls.wrQLenPdf::24                  80374                       # What write queue length does an incoming req see
system.mem_ctrls.wrQLenPdf::25                  80378                       # What write queue length does an incoming req see
system.mem_ctrls.wrQLenPdf::26                  80374                       # What write queue length does an incoming req see
system.mem_ctrls.wrQLenPdf::27                  80371                       # What write queue length does an incoming req see
system.mem_ctrls.wrQLenPdf::28                  80371                       # What write queue length does an incoming req see
system.mem_ctrls.wrQLenPdf::29                  80373                       # What write queue length does an incoming req see
system.mem_ctrls.wrQLenPdf::30                  80370                       # What write queue length does an incoming req see
system.mem_ctrls.wrQLenPdf::31                  80370                       # What write queue length does an incoming req see
system.mem_ctrls.wrQLenPdf::32                  80370                       # What write queue length does an incoming req see
system.mem_ctrls.wrQLenPdf::33                      0                       # What write queue length does an incoming req see
system.mem_ctrls.wrQLenPdf::34                      0                       # What write queue length does an incoming req see
system.mem_ctrls.wrQLenPdf::35                      0                       # What write queue length does an incoming req see
system.mem_ctrls.wrQLenPdf::36                      0                       # What write queue length does an incoming req see
system.mem_ctrls.wrQLenPdf::37                      0                       # What write queue length does an incoming req see
system.mem_ctrls.wrQLenPdf::38                      0                       # What write queue length does an incoming req see
system.mem_ctrls.wrQLenPdf::39                      0                       # What write queue length does an incoming req see
system.mem_ctrls.wrQLenPdf::40                      0                       # What write queue length does an incoming req see
system.mem_ctrls.wrQLenPdf::41                      0                       # What write queue length does an incoming req see
system.mem_ctrls.wrQLenPdf::42                      0                       # What write queue length does an incoming req see
system.mem_ctrls.wrQLenPdf::43                      0                       # What write queue length does an incoming req see
system.mem_ctrls.wrQLenPdf::44                      0                       # What write queue length does an incoming req see
system.mem_ctrls.wrQLenPdf::45                      0                       # What write queue length does an incoming req see
system.mem_ctrls.wrQLenPdf::46                      0                       # What write queue length does an incoming req see
system.mem_ctrls.wrQLenPdf::47                      0                       # What write queue length does an incoming req see
system.mem_ctrls.wrQLenPdf::48                      0                       # What write queue length does an incoming req see
system.mem_ctrls.wrQLenPdf::49                      0                       # What write queue length does an incoming req see
system.mem_ctrls.wrQLenPdf::50                      0                       # What write queue length does an incoming req see
system.mem_ctrls.wrQLenPdf::51                      0                       # What write queue length does an incoming req see
system.mem_ctrls.wrQLenPdf::52                      0                       # What write queue length does an incoming req see
system.mem_ctrls.wrQLenPdf::53                      0                       # What write queue length does an incoming req see
system.mem_ctrls.wrQLenPdf::54                      0                       # What write queue length does an incoming req see
system.mem_ctrls.wrQLenPdf::55                      0                       # What write queue length does an incoming req see
system.mem_ctrls.wrQLenPdf::56                      0                       # What write queue length does an incoming req see
system.mem_ctrls.wrQLenPdf::57                      0                       # What write queue length does an incoming req see
system.mem_ctrls.wrQLenPdf::58                      0                       # What write queue length does an incoming req see
system.mem_ctrls.wrQLenPdf::59                      0                       # What write queue length does an incoming req see
system.mem_ctrls.wrQLenPdf::60                      0                       # What write queue length does an incoming req see
system.mem_ctrls.wrQLenPdf::61                      0                       # What write queue length does an incoming req see
system.mem_ctrls.wrQLenPdf::62                      0                       # What write queue length does an incoming req see
system.mem_ctrls.wrQLenPdf::63                      0                       # What write queue length does an incoming req see
system.mem_ctrls.bytesPerActivate::samples      8664154                       # Bytes accessed per row activation
system.mem_ctrls.bytesPerActivate::mean     82.589660                       # Bytes accessed per row activation
system.mem_ctrls.bytesPerActivate::gmean    71.486088                       # Bytes accessed per row activation
system.mem_ctrls.bytesPerActivate::stdev    95.279782                       # Bytes accessed per row activation
system.mem_ctrls.bytesPerActivate::0-127      7759792     89.56%     89.56% # Bytes accessed per row activation
system.mem_ctrls.bytesPerActivate::128-255       700725      8.09%     97.65% # Bytes accessed per row activation
system.mem_ctrls.bytesPerActivate::256-383        69734      0.80%     98.45% # Bytes accessed per row activation
system.mem_ctrls.bytesPerActivate::384-511        26695      0.31%     98.76% # Bytes accessed per row activation
system.mem_ctrls.bytesPerActivate::512-639        17358      0.20%     98.96% # Bytes accessed per row activation
system.mem_ctrls.bytesPerActivate::640-767        17237      0.20%     99.16% # Bytes accessed per row activation
system.mem_ctrls.bytesPerActivate::768-895        12523      0.14%     99.31% # Bytes accessed per row activation
system.mem_ctrls.bytesPerActivate::896-1023         9247      0.11%     99.41% # Bytes accessed per row activation
system.mem_ctrls.bytesPerActivate::1024-1151        50843      0.59%    100.00% # Bytes accessed per row activation
system.mem_ctrls.bytesPerActivate::total      8664154                       # Bytes accessed per row activation
system.mem_ctrls.rdPerTurnAround::samples        80370                       # Reads before turning the bus around for writes
system.mem_ctrls.rdPerTurnAround::mean     122.492323                       # Reads before turning the bus around for writes
system.mem_ctrls.rdPerTurnAround::gmean     57.510676                       # Reads before turning the bus around for writes
system.mem_ctrls.rdPerTurnAround::stdev    192.495205                       # Reads before turning the bus around for writes
system.mem_ctrls.rdPerTurnAround::0-127         63340     78.81%     78.81% # Reads before turning the bus around for writes
system.mem_ctrls.rdPerTurnAround::128-255         3970      4.94%     83.75% # Reads before turning the bus around for writes
system.mem_ctrls.rdPerTurnAround::256-383         4386      5.46%     89.21% # Reads before turning the bus around for writes
system.mem_ctrls.rdPerTurnAround::384-511         3551      4.42%     93.63% # Reads before turning the bus around for writes
system.mem_ctrls.rdPerTurnAround::512-639         2481      3.09%     96.71% # Reads before turning the bus around for writes
system.mem_ctrls.rdPerTurnAround::640-767         1339      1.67%     98.38% # Reads before turning the bus around for writes
system.mem_ctrls.rdPerTurnAround::768-895          615      0.77%     99.14% # Reads before turning the bus around for writes
system.mem_ctrls.rdPerTurnAround::896-1023          320      0.40%     99.54% # Reads before turning the bus around for writes
system.mem_ctrls.rdPerTurnAround::1024-1151          165      0.21%     99.75% # Reads before turning the bus around for writes
system.mem_ctrls.rdPerTurnAround::1152-1279           95      0.12%     99.87% # Reads before turning the bus around for writes
system.mem_ctrls.rdPerTurnAround::1280-1407           42      0.05%     99.92% # Reads before turning the bus around for writes
system.mem_ctrls.rdPerTurnAround::1408-1535           35      0.04%     99.96% # Reads before turning the bus around for writes
system.mem_ctrls.rdPerTurnAround::1536-1663           15      0.02%     99.98% # Reads before turning the bus around for writes
system.mem_ctrls.rdPerTurnAround::1664-1791            7      0.01%     99.99% # Reads before turning the bus around for writes
system.mem_ctrls.rdPerTurnAround::1792-1919            4      0.00%     99.99% # Reads before turning the bus around for writes
system.mem_ctrls.rdPerTurnAround::1920-2047            3      0.00%    100.00% # Reads before turning the bus around for writes
system.mem_ctrls.rdPerTurnAround::2048-2175            1      0.00%    100.00% # Reads before turning the bus around for writes
system.mem_ctrls.rdPerTurnAround::2944-3071            1      0.00%    100.00% # Reads before turning the bus around for writes
system.mem_ctrls.rdPerTurnAround::total         80370                       # Reads before turning the bus around for writes
system.mem_ctrls.wrPerTurnAround::samples        80370                       # Writes before turning the bus around for reads
system.mem_ctrls.wrPerTurnAround::mean      16.622222                       # Writes before turning the bus around for reads
system.mem_ctrls.wrPerTurnAround::gmean     16.597586                       # Writes before turning the bus around for reads
system.mem_ctrls.wrPerTurnAround::stdev      0.918413                       # Writes before turning the bus around for reads
system.mem_ctrls.wrPerTurnAround::16            54595     67.93%     67.93% # Writes before turning the bus around for reads
system.mem_ctrls.wrPerTurnAround::17             1758      2.19%     70.12% # Writes before turning the bus around for reads
system.mem_ctrls.wrPerTurnAround::18            23801     29.61%     99.73% # Writes before turning the bus around for reads
system.mem_ctrls.wrPerTurnAround::19              216      0.27%    100.00% # Writes before turning the bus around for reads
system.mem_ctrls.wrPerTurnAround::total         80370                       # Writes before turning the bus around for reads
system.mem_ctrls.totQLat                 226635093750                       # Total ticks spent queuing
system.mem_ctrls.totMemAccLat            411225956250                       # Total ticks spent from burst creation until serviced by the DRAM
system.mem_ctrls.totBusLat                49224230000                       # Total ticks spent in databus transfers
system.mem_ctrls.avgQLat                     23020.68                       # Average queueing delay per DRAM burst
system.mem_ctrls.avgBusLat                    5000.00                       # Average bus latency per DRAM burst
system.mem_ctrls.avgMemAccLat                41770.68                       # Average memory access latency per DRAM burst
system.mem_ctrls.avgRdBW                       332.15                       # Average DRAM read bandwidth in MiByte/s
system.mem_ctrls.avgWrBW                        45.07                       # Average achieved write bandwidth in MiByte/s
system.mem_ctrls.avgRdBWSys                    334.63                       # Average system read bandwidth in MiByte/s
system.mem_ctrls.avgWrBWSys                     45.43                       # Average system write bandwidth in MiByte/s
system.mem_ctrls.peakBW                      12800.00                       # Theoretical peak bandwidth in MiByte/s
system.mem_ctrls.busUtil                         2.95                       # Data bus utilization in percentage
system.mem_ctrls.busUtilRead                     2.59                       # Data bus utilization in percentage for reads
system.mem_ctrls.busUtilWrite                    0.35                       # Data bus utilization in percentage for writes
system.mem_ctrls.avgRdQLen                       1.00                       # Average read queue length when enqueuing
system.mem_ctrls.avgWrQLen                      25.04                       # Average write queue length when enqueuing
system.mem_ctrls.readRowHits                  1801844                       # Number of row buffer hits during reads
system.mem_ctrls.writeRowHits                  714776                       # Number of row buffer hits during writes
system.mem_ctrls.readRowHitRate                 18.30                       # Row buffer hit rate for reads
system.mem_ctrls.writeRowHitRate                53.50                       # Row buffer hit rate for writes
system.mem_ctrls.avgGap                     168395.40                       # Average gap between requests
system.mem_ctrls.pageHitRate                    22.51                       # Row buffer hit rate, read and write combined
system.mem_ctrls_0.actEnergy              32218240320                       # Energy for activate commands per rank (pJ)
system.mem_ctrls_0.preEnergy              17579397000                       # Energy for precharge commands per rank (pJ)
system.mem_ctrls_0.readEnergy             37773894600                       # Energy for read commands per rank (pJ)
system.mem_ctrls_0.writeEnergy             4437180000                       # Energy for write commands per rank (pJ)
system.mem_ctrls_0.refreshEnergy         123896912880                       # Energy for refresh commands per rank (pJ)
system.mem_ctrls_0.actBackEnergy         1066067585415                       # Energy for active background per rank (pJ)
system.mem_ctrls_0.preBackEnergy         202998893250                       # Energy for precharge background per rank (pJ)
system.mem_ctrls_0.totalEnergy           1484972103465                       # Total energy per rank (pJ)
system.mem_ctrls_0.averagePower            782.837476                       # Core power per rank (mW)
system.mem_ctrls_0.memoryStateTime::IDLE 331343642250                       # Time in different power states
system.mem_ctrls_0.memoryStateTime::REF   63341980000                       # Time in different power states
system.mem_ctrls_0.memoryStateTime::PRE_PDN            0                       # Time in different power states
system.mem_ctrls_0.memoryStateTime::ACT  1502224221500                       # Time in different power states
system.mem_ctrls_0.memoryStateTime::ACT_PDN            0                       # Time in different power states
system.mem_ctrls_1.actEnergy              33282763920                       # Energy for activate commands per rank (pJ)
system.mem_ctrls_1.preEnergy              18160238250                       # Energy for precharge commands per rank (pJ)
system.mem_ctrls_1.readEnergy             39015904200                       # Energy for read commands per rank (pJ)
system.mem_ctrls_1.writeEnergy             4219633440                       # Energy for write commands per rank (pJ)
system.mem_ctrls_1.refreshEnergy         123896912880                       # Energy for refresh commands per rank (pJ)
system.mem_ctrls_1.actBackEnergy         1065636511515                       # Energy for active background per rank (pJ)
system.mem_ctrls_1.preBackEnergy         203377028250                       # Energy for precharge background per rank (pJ)
system.mem_ctrls_1.totalEnergy           1487588992455                       # Total energy per rank (pJ)
system.mem_ctrls_1.averagePower            784.217030                       # Core power per rank (mW)
system.mem_ctrls_1.memoryStateTime::IDLE 331666864500                       # Time in different power states
system.mem_ctrls_1.memoryStateTime::REF   63341980000                       # Time in different power states
system.mem_ctrls_1.memoryStateTime::PRE_PDN            0                       # Time in different power states
system.mem_ctrls_1.memoryStateTime::ACT  1501900999250                       # Time in different power states
system.mem_ctrls_1.memoryStateTime::ACT_PDN            0                       # Time in different power states
system.cpu_voltage_domain.voltage                   1                       # Voltage in Volts
system.cpu_clk_domain.clock                       500                       # Clock period in ticks
system.cpu.apic_clk_domain.clock                 8000                       # Clock period in ticks
system.cpu.workload.num_syscalls                  168                       # Number of system calls
system.cpu.numCycles                       3793832307                       # number of cpu cycles simulated
system.cpu.numWorkItemsStarted                      0                       # number of work items this cpu started
system.cpu.numWorkItemsCompleted                    0                       # number of work items this cpu completed
system.cpu.committedInsts                   500000000                       # Number of instructions committed
system.cpu.committedOps                     876313787                       # Number of ops (including micro ops) committed
system.cpu.num_int_alu_accesses             872966684                       # Number of integer alu accesses
system.cpu.num_fp_alu_accesses                2882231                       # Number of float alu accesses
system.cpu.num_func_calls                    11025254                       # number of times a function call or return occured
system.cpu.num_conditional_control_insts     75981010                       # number of instructions that are conditional controls
system.cpu.num_int_insts                    872966684                       # number of integer instructions
system.cpu.num_fp_insts                       2882231                       # number of float instructions
system.cpu.num_int_register_reads          1835046968                       # number of times the integer registers were read
system.cpu.num_int_register_writes          703076421                       # number of times the integer registers were written
system.cpu.num_fp_register_reads              4386063                       # number of times the floating registers were read
system.cpu.num_fp_register_writes             2464405                       # number of times the floating registers were written
system.cpu.num_cc_register_reads            441654672                       # number of times the CC registers were read
system.cpu.num_cc_register_writes           253505512                       # number of times the CC registers were written
system.cpu.num_mem_refs                     293763601                       # number of memory refs
system.cpu.num_load_insts                   221285044                       # Number of load instructions
system.cpu.num_store_insts                   72478557                       # Number of store instructions
system.cpu.num_idle_cycles                          0                       # Number of idle cycles
system.cpu.num_busy_cycles                 3793832307                       # Number of busy cycles
system.cpu.not_idle_fraction                        1                       # Percentage of non-idle cycles
system.cpu.idle_fraction                            0                       # Percentage of idle cycles
system.cpu.Branches                          97901002                       # Number of branches fetched
system.cpu.op_class::No_OpClass                939429      0.11%      0.11% # Class of executed instruction
system.cpu.op_class::IntAlu                 578420256     66.01%     66.11% # Class of executed instruction
system.cpu.op_class::IntMult                   907073      0.10%     66.22% # Class of executed instruction
system.cpu.op_class::IntDiv                        42      0.00%     66.22% # Class of executed instruction
system.cpu.op_class::FloatAdd                 2283386      0.26%     66.48% # Class of executed instruction
system.cpu.op_class::FloatCmp                       0      0.00%     66.48% # Class of executed instruction
system.cpu.op_class::FloatCvt                       0      0.00%     66.48% # Class of executed instruction
system.cpu.op_class::FloatMult                      0      0.00%     66.48% # Class of executed instruction
system.cpu.op_class::FloatDiv                       0      0.00%     66.48% # Class of executed instruction
system.cpu.op_class::FloatSqrt                      0      0.00%     66.48% # Class of executed instruction
system.cpu.op_class::SimdAdd                        0      0.00%     66.48% # Class of executed instruction
system.cpu.op_class::SimdAddAcc                     0      0.00%     66.48% # Class of executed instruction
system.cpu.op_class::SimdAlu                        0      0.00%     66.48% # Class of executed instruction
system.cpu.op_class::SimdCmp                        0      0.00%     66.48% # Class of executed instruction
system.cpu.op_class::SimdCvt                        0      0.00%     66.48% # Class of executed instruction
system.cpu.op_class::SimdMisc                       0      0.00%     66.48% # Class of executed instruction
system.cpu.op_class::SimdMult                       0      0.00%     66.48% # Class of executed instruction
system.cpu.op_class::SimdMultAcc                    0      0.00%     66.48% # Class of executed instruction
system.cpu.op_class::SimdShift                      0      0.00%     66.48% # Class of executed instruction
system.cpu.op_class::SimdShiftAcc                   0      0.00%     66.48% # Class of executed instruction
system.cpu.op_class::SimdSqrt                       0      0.00%     66.48% # Class of executed instruction
system.cpu.op_class::SimdFloatAdd                   0      0.00%     66.48% # Class of executed instruction
system.cpu.op_class::SimdFloatAlu                   0      0.00%     66.48% # Class of executed instruction
system.cpu.op_class::SimdFloatCmp                   0      0.00%     66.48% # Class of executed instruction
system.cpu.op_class::SimdFloatCvt                   0      0.00%     66.48% # Class of executed instruction
system.cpu.op_class::SimdFloatDiv                   0      0.00%     66.48% # Class of executed instruction
system.cpu.op_class::SimdFloatMisc                  0      0.00%     66.48% # Class of executed instruction
system.cpu.op_class::SimdFloatMult                  0      0.00%     66.48% # Class of executed instruction
system.cpu.op_class::SimdFloatMultAcc               0      0.00%     66.48% # Class of executed instruction
system.cpu.op_class::SimdFloatSqrt                  0      0.00%     66.48% # Class of executed instruction
system.cpu.op_class::MemRead                221285044     25.25%     91.73% # Class of executed instruction
system.cpu.op_class::MemWrite                72478557      8.27%    100.00% # Class of executed instruction
system.cpu.op_class::IprAccess                      0      0.00%    100.00% # Class of executed instruction
system.cpu.op_class::InstPrefetch                   0      0.00%    100.00% # Class of executed instruction
system.cpu.op_class::total                  876313787                       # Class of executed instruction
system.cpu.dcache.tags.replacements          10223913                       # number of replacements
system.cpu.dcache.tags.tagsinuse          2047.406729                       # Cycle average of tags in use
system.cpu.dcache.tags.total_refs           283551768                       # Total number of references to valid blocks.
system.cpu.dcache.tags.sampled_refs          10225961                       # Sample count of references to valid blocks.
system.cpu.dcache.tags.avg_refs             27.728618                       # Average number of references to valid blocks.
system.cpu.dcache.tags.warmup_cycle        1262398500                       # Cycle when the warmup percentage was hit.
system.cpu.dcache.tags.occ_blocks::cpu.data  2047.406729                       # Average occupied blocks per requestor
system.cpu.dcache.tags.occ_percent::cpu.data     0.999710                       # Average percentage of cache occupancy
system.cpu.dcache.tags.occ_percent::total     0.999710                       # Average percentage of cache occupancy
system.cpu.dcache.tags.occ_task_id_blocks::1024         2048                       # Occupied blocks per task id
system.cpu.dcache.tags.age_task_id_blocks_1024::0            2                       # Occupied blocks per task id
system.cpu.dcache.tags.age_task_id_blocks_1024::1          541                       # Occupied blocks per task id
system.cpu.dcache.tags.age_task_id_blocks_1024::2         1256                       # Occupied blocks per task id
system.cpu.dcache.tags.age_task_id_blocks_1024::3          245                       # Occupied blocks per task id
system.cpu.dcache.tags.age_task_id_blocks_1024::4            4                       # Occupied blocks per task id
system.cpu.dcache.tags.occ_task_id_percent::1024            1                       # Percentage of cache occupancy per task id
system.cpu.dcache.tags.tag_accesses         597781419                       # Number of tag accesses
system.cpu.dcache.tags.data_accesses        597781419                       # Number of data accesses
system.cpu.dcache.ReadReq_hits::cpu.data    211414955                       # number of ReadReq hits
system.cpu.dcache.ReadReq_hits::total       211414955                       # number of ReadReq hits
system.cpu.dcache.WriteReq_hits::cpu.data     72136813                       # number of WriteReq hits
system.cpu.dcache.WriteReq_hits::total       72136813                       # number of WriteReq hits
system.cpu.dcache.demand_hits::cpu.data     283551768                       # number of demand (read+write) hits
system.cpu.dcache.demand_hits::total        283551768                       # number of demand (read+write) hits
system.cpu.dcache.overall_hits::cpu.data    283551768                       # number of overall hits
system.cpu.dcache.overall_hits::total       283551768                       # number of overall hits
system.cpu.dcache.ReadReq_misses::cpu.data      9884216                       # number of ReadReq misses
system.cpu.dcache.ReadReq_misses::total       9884216                       # number of ReadReq misses
system.cpu.dcache.WriteReq_misses::cpu.data       341745                       # number of WriteReq misses
system.cpu.dcache.WriteReq_misses::total       341745                       # number of WriteReq misses
system.cpu.dcache.demand_misses::cpu.data     10225961                       # number of demand (read+write) misses
system.cpu.dcache.demand_misses::total       10225961                       # number of demand (read+write) misses
system.cpu.dcache.overall_misses::cpu.data     10225961                       # number of overall misses
system.cpu.dcache.overall_misses::total      10225961                       # number of overall misses
system.cpu.dcache.ReadReq_miss_latency::cpu.data 914045512000                       # number of ReadReq miss cycles
system.cpu.dcache.ReadReq_miss_latency::total 914045512000                       # number of ReadReq miss cycles
system.cpu.dcache.WriteReq_miss_latency::cpu.data  21954770000                       # number of WriteReq miss cycles
system.cpu.dcache.WriteReq_miss_latency::total  21954770000                       # number of WriteReq miss cycles
system.cpu.dcache.demand_miss_latency::cpu.data 936000282000                       # number of demand (read+write) miss cycles
system.cpu.dcache.demand_miss_latency::total 936000282000                       # number of demand (read+write) miss cycles
system.cpu.dcache.overall_miss_latency::cpu.data 936000282000                       # number of overall miss cycles
system.cpu.dcache.overall_miss_latency::total 936000282000                       # number of overall miss cycles
system.cpu.dcache.ReadReq_accesses::cpu.data    221299171                       # number of ReadReq accesses(hits+misses)
system.cpu.dcache.ReadReq_accesses::total    221299171                       # number of ReadReq accesses(hits+misses)
system.cpu.dcache.WriteReq_accesses::cpu.data     72478558                       # number of WriteReq accesses(hits+misses)
system.cpu.dcache.WriteReq_accesses::total     72478558                       # number of WriteReq accesses(hits+misses)
system.cpu.dcache.demand_accesses::cpu.data    293777729                       # number of demand (read+write) accesses
system.cpu.dcache.demand_accesses::total    293777729                       # number of demand (read+write) accesses
system.cpu.dcache.overall_accesses::cpu.data    293777729                       # number of overall (read+write) accesses
system.cpu.dcache.overall_accesses::total    293777729                       # number of overall (read+write) accesses
system.cpu.dcache.ReadReq_miss_rate::cpu.data     0.044664                       # miss rate for ReadReq accesses
system.cpu.dcache.ReadReq_miss_rate::total     0.044664                       # miss rate for ReadReq accesses
system.cpu.dcache.WriteReq_miss_rate::cpu.data     0.004715                       # miss rate for WriteReq accesses
system.cpu.dcache.WriteReq_miss_rate::total     0.004715                       # miss rate for WriteReq accesses
system.cpu.dcache.demand_miss_rate::cpu.data     0.034808                       # miss rate for demand accesses
system.cpu.dcache.demand_miss_rate::total     0.034808                       # miss rate for demand accesses
system.cpu.dcache.overall_miss_rate::cpu.data     0.034808                       # miss rate for overall accesses
system.cpu.dcache.overall_miss_rate::total     0.034808                       # miss rate for overall accesses
system.cpu.dcache.ReadReq_avg_miss_latency::cpu.data 92475.266829                       # average ReadReq miss latency
system.cpu.dcache.ReadReq_avg_miss_latency::total 92475.266829                       # average ReadReq miss latency
system.cpu.dcache.WriteReq_avg_miss_latency::cpu.data 64243.134501                       # average WriteReq miss latency
system.cpu.dcache.WriteReq_avg_miss_latency::total 64243.134501                       # average WriteReq miss latency
system.cpu.dcache.demand_avg_miss_latency::cpu.data 91531.767234                       # average overall miss latency
system.cpu.dcache.demand_avg_miss_latency::total 91531.767234                       # average overall miss latency
system.cpu.dcache.overall_avg_miss_latency::cpu.data 91531.767234                       # average overall miss latency
system.cpu.dcache.overall_avg_miss_latency::total 91531.767234                       # average overall miss latency
system.cpu.dcache.blocked_cycles::no_mshrs            0                       # number of cycles access was blocked
system.cpu.dcache.blocked_cycles::no_targets            0                       # number of cycles access was blocked
system.cpu.dcache.blocked::no_mshrs                 0                       # number of cycles access was blocked
system.cpu.dcache.blocked::no_targets               0                       # number of cycles access was blocked
system.cpu.dcache.avg_blocked_cycles::no_mshrs          nan                       # average number of cycles each access was blocked
system.cpu.dcache.avg_blocked_cycles::no_targets          nan                       # average number of cycles each access was blocked
system.cpu.dcache.fast_writes                       0                       # number of fast writes performed
system.cpu.dcache.cache_copies                      0                       # number of cache copies performed
system.cpu.dcache.writebacks::writebacks      1655237                       # number of writebacks
system.cpu.dcache.writebacks::total           1655237                       # number of writebacks
system.cpu.dcache.ReadReq_mshr_misses::cpu.data      9884216                       # number of ReadReq MSHR misses
system.cpu.dcache.ReadReq_mshr_misses::total      9884216                       # number of ReadReq MSHR misses
system.cpu.dcache.WriteReq_mshr_misses::cpu.data       341745                       # number of WriteReq MSHR misses
system.cpu.dcache.WriteReq_mshr_misses::total       341745                       # number of WriteReq MSHR misses
system.cpu.dcache.demand_mshr_misses::cpu.data     10225961                       # number of demand (read+write) MSHR misses
system.cpu.dcache.demand_mshr_misses::total     10225961                       # number of demand (read+write) MSHR misses
system.cpu.dcache.overall_mshr_misses::cpu.data     10225961                       # number of overall MSHR misses
system.cpu.dcache.overall_mshr_misses::total     10225961                       # number of overall MSHR misses
system.cpu.dcache.ReadReq_mshr_miss_latency::cpu.data 904161296000                       # number of ReadReq MSHR miss cycles
system.cpu.dcache.ReadReq_mshr_miss_latency::total 904161296000                       # number of ReadReq MSHR miss cycles
system.cpu.dcache.WriteReq_mshr_miss_latency::cpu.data  21613025000                       # number of WriteReq MSHR miss cycles
system.cpu.dcache.WriteReq_mshr_miss_latency::total  21613025000                       # number of WriteReq MSHR miss cycles
system.cpu.dcache.demand_mshr_miss_latency::cpu.data 925774321000                       # number of demand (read+write) MSHR miss cycles
system.cpu.dcache.demand_mshr_miss_latency::total 925774321000                       # number of demand (read+write) MSHR miss cycles
system.cpu.dcache.overall_mshr_miss_latency::cpu.data 925774321000                       # number of overall MSHR miss cycles
system.cpu.dcache.overall_mshr_miss_latency::total 925774321000                       # number of overall MSHR miss cycles
system.cpu.dcache.ReadReq_mshr_miss_rate::cpu.data     0.044664                       # mshr miss rate for ReadReq accesses
system.cpu.dcache.ReadReq_mshr_miss_rate::total     0.044664                       # mshr miss rate for ReadReq accesses
system.cpu.dcache.WriteReq_mshr_miss_rate::cpu.data     0.004715                       # mshr miss rate for WriteReq accesses
system.cpu.dcache.WriteReq_mshr_miss_rate::total     0.004715                       # mshr miss rate for WriteReq accesses
system.cpu.dcache.demand_mshr_miss_rate::cpu.data     0.034808                       # mshr miss rate for demand accesses
system.cpu.dcache.demand_mshr_miss_rate::total     0.034808                       # mshr miss rate for demand accesses
system.cpu.dcache.overall_mshr_miss_rate::cpu.data     0.034808                       # mshr miss rate for overall accesses
system.cpu.dcache.overall_mshr_miss_rate::total     0.034808                       # mshr miss rate for overall accesses
system.cpu.dcache.ReadReq_avg_mshr_miss_latency::cpu.data 91475.266829                       # average ReadReq mshr miss latency
system.cpu.dcache.ReadReq_avg_mshr_miss_latency::total 91475.266829                       # average ReadReq mshr miss latency
system.cpu.dcache.WriteReq_avg_mshr_miss_latency::cpu.data 63243.134501                       # average WriteReq mshr miss latency
system.cpu.dcache.WriteReq_avg_mshr_miss_latency::total 63243.134501                       # average WriteReq mshr miss latency
system.cpu.dcache.demand_avg_mshr_miss_latency::cpu.data 90531.767234                       # average overall mshr miss latency
system.cpu.dcache.demand_avg_mshr_miss_latency::total 90531.767234                       # average overall mshr miss latency
system.cpu.dcache.overall_avg_mshr_miss_latency::cpu.data 90531.767234                       # average overall mshr miss latency
system.cpu.dcache.overall_avg_mshr_miss_latency::total 90531.767234                       # average overall mshr miss latency
system.cpu.dcache.no_allocate_misses                0                       # Number of misses that were no-allocate
system.cpu.dtb_walker_cache.tags.replacements            0                       # number of replacements
system.cpu.dtb_walker_cache.tags.tagsinuse            0                       # Cycle average of tags in use
system.cpu.dtb_walker_cache.tags.total_refs            0                       # Total number of references to valid blocks.
system.cpu.dtb_walker_cache.tags.sampled_refs            0                       # Sample count of references to valid blocks.
system.cpu.dtb_walker_cache.tags.avg_refs          nan                       # Average number of references to valid blocks.
system.cpu.dtb_walker_cache.tags.warmup_cycle            0                       # Cycle when the warmup percentage was hit.
system.cpu.dtb_walker_cache.tags.tag_accesses            0                       # Number of tag accesses
system.cpu.dtb_walker_cache.tags.data_accesses            0                       # Number of data accesses
system.cpu.dtb_walker_cache.blocked_cycles::no_mshrs            0                       # number of cycles access was blocked
system.cpu.dtb_walker_cache.blocked_cycles::no_targets            0                       # number of cycles access was blocked
system.cpu.dtb_walker_cache.blocked::no_mshrs            0                       # number of cycles access was blocked
system.cpu.dtb_walker_cache.blocked::no_targets            0                       # number of cycles access was blocked
system.cpu.dtb_walker_cache.avg_blocked_cycles::no_mshrs          nan                       # average number of cycles each access was blocked
system.cpu.dtb_walker_cache.avg_blocked_cycles::no_targets          nan                       # average number of cycles each access was blocked
system.cpu.dtb_walker_cache.fast_writes             0                       # number of fast writes performed
system.cpu.dtb_walker_cache.cache_copies            0                       # number of cache copies performed
system.cpu.dtb_walker_cache.no_allocate_misses            0                       # Number of misses that were no-allocate
system.cpu.icache.tags.replacements                21                       # number of replacements
system.cpu.icache.tags.tagsinuse           623.402569                       # Cycle average of tags in use
system.cpu.icache.tags.total_refs           677317270                       # Total number of references to valid blocks.
system.cpu.icache.tags.sampled_refs               676                       # Sample count of references to valid blocks.
system.cpu.icache.tags.avg_refs          1001948.624260                       # Average number of references to valid blocks.
system.cpu.icache.tags.warmup_cycle                 0                       # Cycle when the warmup percentage was hit.
system.cpu.icache.tags.occ_blocks::cpu.inst   623.402569                       # Average occupied blocks per requestor
system.cpu.icache.tags.occ_percent::cpu.inst     0.304396                       # Average percentage of cache occupancy
system.cpu.icache.tags.occ_percent::total     0.304396                       # Average percentage of cache occupancy
system.cpu.icache.tags.occ_task_id_blocks::1024          655                       # Occupied blocks per task id
system.cpu.icache.tags.age_task_id_blocks_1024::4          655                       # Occupied blocks per task id
system.cpu.icache.tags.occ_task_id_percent::1024     0.319824                       # Percentage of cache occupancy per task id
system.cpu.icache.tags.tag_accesses        1354636568                       # Number of tag accesses
system.cpu.icache.tags.data_accesses       1354636568                       # Number of data accesses
system.cpu.icache.ReadReq_hits::cpu.inst    677317270                       # number of ReadReq hits
system.cpu.icache.ReadReq_hits::total       677317270                       # number of ReadReq hits
system.cpu.icache.demand_hits::cpu.inst     677317270                       # number of demand (read+write) hits
system.cpu.icache.demand_hits::total        677317270                       # number of demand (read+write) hits
system.cpu.icache.overall_hits::cpu.inst    677317270                       # number of overall hits
system.cpu.icache.overall_hits::total       677317270                       # number of overall hits
system.cpu.icache.ReadReq_misses::cpu.inst          676                       # number of ReadReq misses
system.cpu.icache.ReadReq_misses::total           676                       # number of ReadReq misses
system.cpu.icache.demand_misses::cpu.inst          676                       # number of demand (read+write) misses
system.cpu.icache.demand_misses::total            676                       # number of demand (read+write) misses
system.cpu.icache.overall_misses::cpu.inst          676                       # number of overall misses
system.cpu.icache.overall_misses::total           676                       # number of overall misses
system.cpu.icache.ReadReq_miss_latency::cpu.inst     53900000                       # number of ReadReq miss cycles
system.cpu.icache.ReadReq_miss_latency::total     53900000                       # number of ReadReq miss cycles
system.cpu.icache.demand_miss_latency::cpu.inst     53900000                       # number of demand (read+write) miss cycles
system.cpu.icache.demand_miss_latency::total     53900000                       # number of demand (read+write) miss cycles
system.cpu.icache.overall_miss_latency::cpu.inst     53900000                       # number of overall miss cycles
system.cpu.icache.overall_miss_latency::total     53900000                       # number of overall miss cycles
system.cpu.icache.ReadReq_accesses::cpu.inst    677317946                       # number of ReadReq accesses(hits+misses)
system.cpu.icache.ReadReq_accesses::total    677317946                       # number of ReadReq accesses(hits+misses)
system.cpu.icache.demand_accesses::cpu.inst    677317946                       # number of demand (read+write) accesses
system.cpu.icache.demand_accesses::total    677317946                       # number of demand (read+write) accesses
system.cpu.icache.overall_accesses::cpu.inst    677317946                       # number of overall (read+write) accesses
system.cpu.icache.overall_accesses::total    677317946                       # number of overall (read+write) accesses
system.cpu.icache.ReadReq_miss_rate::cpu.inst     0.000001                       # miss rate for ReadReq accesses
system.cpu.icache.ReadReq_miss_rate::total     0.000001                       # miss rate for ReadReq accesses
system.cpu.icache.demand_miss_rate::cpu.inst     0.000001                       # miss rate for demand accesses
system.cpu.icache.demand_miss_rate::total     0.000001                       # miss rate for demand accesses
system.cpu.icache.overall_miss_rate::cpu.inst     0.000001                       # miss rate for overall accesses
system.cpu.icache.overall_miss_rate::total     0.000001                       # miss rate for overall accesses
system.cpu.icache.ReadReq_avg_miss_latency::cpu.inst 79733.727811                       # average ReadReq miss latency
system.cpu.icache.ReadReq_avg_miss_latency::total 79733.727811                       # average ReadReq miss latency
system.cpu.icache.demand_avg_miss_latency::cpu.inst 79733.727811                       # average overall miss latency
system.cpu.icache.demand_avg_miss_latency::total 79733.727811                       # average overall miss latency
system.cpu.icache.overall_avg_miss_latency::cpu.inst 79733.727811                       # average overall miss latency
system.cpu.icache.overall_avg_miss_latency::total 79733.727811                       # average overall miss latency
system.cpu.icache.blocked_cycles::no_mshrs            0                       # number of cycles access was blocked
system.cpu.icache.blocked_cycles::no_targets            0                       # number of cycles access was blocked
system.cpu.icache.blocked::no_mshrs                 0                       # number of cycles access was blocked
system.cpu.icache.blocked::no_targets               0                       # number of cycles access was blocked
system.cpu.icache.avg_blocked_cycles::no_mshrs          nan                       # average number of cycles each access was blocked
system.cpu.icache.avg_blocked_cycles::no_targets          nan                       # average number of cycles each access was blocked
system.cpu.icache.fast_writes                       0                       # number of fast writes performed
system.cpu.icache.cache_copies                      0                       # number of cache copies performed
system.cpu.icache.writebacks::writebacks           21                       # number of writebacks
system.cpu.icache.writebacks::total                21                       # number of writebacks
system.cpu.icache.ReadReq_mshr_misses::cpu.inst          676                       # number of ReadReq MSHR misses
system.cpu.icache.ReadReq_mshr_misses::total          676                       # number of ReadReq MSHR misses
system.cpu.icache.demand_mshr_misses::cpu.inst          676                       # number of demand (read+write) MSHR misses
system.cpu.icache.demand_mshr_misses::total          676                       # number of demand (read+write) MSHR misses
system.cpu.icache.overall_mshr_misses::cpu.inst          676                       # number of overall MSHR misses
system.cpu.icache.overall_mshr_misses::total          676                       # number of overall MSHR misses
system.cpu.icache.ReadReq_mshr_miss_latency::cpu.inst     53224000                       # number of ReadReq MSHR miss cycles
system.cpu.icache.ReadReq_mshr_miss_latency::total     53224000                       # number of ReadReq MSHR miss cycles
system.cpu.icache.demand_mshr_miss_latency::cpu.inst     53224000                       # number of demand (read+write) MSHR miss cycles
system.cpu.icache.demand_mshr_miss_latency::total     53224000                       # number of demand (read+write) MSHR miss cycles
system.cpu.icache.overall_mshr_miss_latency::cpu.inst     53224000                       # number of overall MSHR miss cycles
system.cpu.icache.overall_mshr_miss_latency::total     53224000                       # number of overall MSHR miss cycles
system.cpu.icache.ReadReq_mshr_miss_rate::cpu.inst     0.000001                       # mshr miss rate for ReadReq accesses
system.cpu.icache.ReadReq_mshr_miss_rate::total     0.000001                       # mshr miss rate for ReadReq accesses
system.cpu.icache.demand_mshr_miss_rate::cpu.inst     0.000001                       # mshr miss rate for demand accesses
system.cpu.icache.demand_mshr_miss_rate::total     0.000001                       # mshr miss rate for demand accesses
system.cpu.icache.overall_mshr_miss_rate::cpu.inst     0.000001                       # mshr miss rate for overall accesses
system.cpu.icache.overall_mshr_miss_rate::total     0.000001                       # mshr miss rate for overall accesses
system.cpu.icache.ReadReq_avg_mshr_miss_latency::cpu.inst 78733.727811                       # average ReadReq mshr miss latency
system.cpu.icache.ReadReq_avg_mshr_miss_latency::total 78733.727811                       # average ReadReq mshr miss latency
system.cpu.icache.demand_avg_mshr_miss_latency::cpu.inst 78733.727811                       # average overall mshr miss latency
system.cpu.icache.demand_avg_mshr_miss_latency::total 78733.727811                       # average overall mshr miss latency
system.cpu.icache.overall_avg_mshr_miss_latency::cpu.inst 78733.727811                       # average overall mshr miss latency
system.cpu.icache.overall_avg_mshr_miss_latency::total 78733.727811                       # average overall mshr miss latency
system.cpu.icache.no_allocate_misses                0                       # Number of misses that were no-allocate
system.cpu.itb_walker_cache.tags.replacements            0                       # number of replacements
system.cpu.itb_walker_cache.tags.tagsinuse            0                       # Cycle average of tags in use
system.cpu.itb_walker_cache.tags.total_refs            0                       # Total number of references to valid blocks.
system.cpu.itb_walker_cache.tags.sampled_refs            0                       # Sample count of references to valid blocks.
system.cpu.itb_walker_cache.tags.avg_refs          nan                       # Average number of references to valid blocks.
system.cpu.itb_walker_cache.tags.warmup_cycle            0                       # Cycle when the warmup percentage was hit.
system.cpu.itb_walker_cache.tags.tag_accesses            0                       # Number of tag accesses
system.cpu.itb_walker_cache.tags.data_accesses            0                       # Number of data accesses
system.cpu.itb_walker_cache.blocked_cycles::no_mshrs            0                       # number of cycles access was blocked
system.cpu.itb_walker_cache.blocked_cycles::no_targets            0                       # number of cycles access was blocked
system.cpu.itb_walker_cache.blocked::no_mshrs            0                       # number of cycles access was blocked
system.cpu.itb_walker_cache.blocked::no_targets            0                       # number of cycles access was blocked
system.cpu.itb_walker_cache.avg_blocked_cycles::no_mshrs          nan                       # average number of cycles each access was blocked
system.cpu.itb_walker_cache.avg_blocked_cycles::no_targets          nan                       # average number of cycles each access was blocked
system.cpu.itb_walker_cache.fast_writes             0                       # number of fast writes performed
system.cpu.itb_walker_cache.cache_copies            0                       # number of cache copies performed
system.cpu.itb_walker_cache.no_allocate_misses            0                       # Number of misses that were no-allocate
system.l2.tags.replacements                  11230615                       # number of replacements
system.l2.tags.tagsinuse                  1011.777686                       # Cycle average of tags in use
system.l2.tags.total_refs                      308518                       # Total number of references to valid blocks.
system.l2.tags.sampled_refs                  11231621                       # Sample count of references to valid blocks.
system.l2.tags.avg_refs                      0.027469                       # Average number of references to valid blocks.
system.l2.tags.warmup_cycle                2670107000                       # Cycle when the warmup percentage was hit.
system.l2.tags.occ_blocks::writebacks      300.600647                       # Average occupied blocks per requestor
system.l2.tags.occ_blocks::cpu.inst          0.089187                       # Average occupied blocks per requestor
system.l2.tags.occ_blocks::cpu.data        711.087852                       # Average occupied blocks per requestor
system.l2.tags.occ_percent::writebacks       0.293555                       # Average percentage of cache occupancy
system.l2.tags.occ_percent::cpu.inst         0.000087                       # Average percentage of cache occupancy
system.l2.tags.occ_percent::cpu.data         0.694422                       # Average percentage of cache occupancy
system.l2.tags.occ_percent::total            0.988064                       # Average percentage of cache occupancy
system.l2.tags.occ_task_id_blocks::1024          1006                       # Occupied blocks per task id
system.l2.tags.age_task_id_blocks_1024::0            1                       # Occupied blocks per task id
system.l2.tags.age_task_id_blocks_1024::1          419                       # Occupied blocks per task id
system.l2.tags.age_task_id_blocks_1024::2          537                       # Occupied blocks per task id
system.l2.tags.age_task_id_blocks_1024::3           49                       # Occupied blocks per task id
system.l2.tags.occ_task_id_percent::1024     0.982422                       # Percentage of cache occupancy per task id
system.l2.tags.tag_accesses                  32023936                       # Number of tag accesses
system.l2.tags.data_accesses                 32023936                       # Number of data accesses
system.l2.WritebackDirty_hits::writebacks      1655237                       # number of WritebackDirty hits
system.l2.WritebackDirty_hits::total          1655237                       # number of WritebackDirty hits
system.l2.WritebackClean_hits::writebacks           21                       # number of WritebackClean hits
system.l2.WritebackClean_hits::total               21                       # number of WritebackClean hits
system.l2.ReadExReq_hits::cpu.data              82816                       # number of ReadExReq hits
system.l2.ReadExReq_hits::total                 82816                       # number of ReadExReq hits
system.l2.ReadSharedReq_hits::cpu.data         225713                       # number of ReadSharedReq hits
system.l2.ReadSharedReq_hits::total            225713                       # number of ReadSharedReq hits
system.l2.demand_hits::cpu.data                308529                       # number of demand (read+write) hits
system.l2.demand_hits::total                   308529                       # number of demand (read+write) hits
system.l2.overall_hits::cpu.data               308529                       # number of overall hits
system.l2.overall_hits::total                  308529                       # number of overall hits
system.l2.ReadExReq_misses::cpu.data           258929                       # number of ReadExReq misses
system.l2.ReadExReq_misses::total              258929                       # number of ReadExReq misses
system.l2.ReadCleanReq_misses::cpu.inst           676                       # number of ReadCleanReq misses
system.l2.ReadCleanReq_misses::total              676                       # number of ReadCleanReq misses
system.l2.ReadSharedReq_misses::cpu.data      9658503                       # number of ReadSharedReq misses
system.l2.ReadSharedReq_misses::total         9658503                       # number of ReadSharedReq misses
system.l2.demand_misses::cpu.inst                 676                       # number of demand (read+write) misses
system.l2.demand_misses::cpu.data             9917432                       # number of demand (read+write) misses
system.l2.demand_misses::total                9918108                       # number of demand (read+write) misses
system.l2.overall_misses::cpu.inst                676                       # number of overall misses
system.l2.overall_misses::cpu.data            9917432                       # number of overall misses
system.l2.overall_misses::total               9918108                       # number of overall misses
system.l2.ReadExReq_miss_latency::cpu.data  20230839000                       # number of ReadExReq miss cycles
system.l2.ReadExReq_miss_latency::total   20230839000                       # number of ReadExReq miss cycles
system.l2.ReadCleanReq_miss_latency::cpu.inst     52208000                       # number of ReadCleanReq miss cycles
system.l2.ReadCleanReq_miss_latency::total     52208000                       # number of ReadCleanReq miss cycles
system.l2.ReadSharedReq_miss_latency::cpu.data 886964985500                       # number of ReadSharedReq miss cycles
system.l2.ReadSharedReq_miss_latency::total 886964985500                       # number of ReadSharedReq miss cycles
system.l2.demand_miss_latency::cpu.inst      52208000                       # number of demand (read+write) miss cycles
system.l2.demand_miss_latency::cpu.data  907195824500                       # number of demand (read+write) miss cycles
system.l2.demand_miss_latency::total     907248032500                       # number of demand (read+write) miss cycles
system.l2.overall_miss_latency::cpu.inst     52208000                       # number of overall miss cycles
system.l2.overall_miss_latency::cpu.data 907195824500                       # number of overall miss cycles
system.l2.overall_miss_latency::total    907248032500                       # number of overall miss cycles
system.l2.WritebackDirty_accesses::writebacks      1655237                       # number of WritebackDirty accesses(hits+misses)
system.l2.WritebackDirty_accesses::total      1655237                       # number of WritebackDirty accesses(hits+misses)
system.l2.WritebackClean_accesses::writebacks           21                       # number of WritebackClean accesses(hits+misses)
system.l2.WritebackClean_accesses::total           21                       # number of WritebackClean accesses(hits+misses)
system.l2.ReadExReq_accesses::cpu.data         341745                       # number of ReadExReq accesses(hits+misses)
system.l2.ReadExReq_accesses::total            341745                       # number of ReadExReq accesses(hits+misses)
system.l2.ReadCleanReq_accesses::cpu.inst          676                       # number of ReadCleanReq accesses(hits+misses)
system.l2.ReadCleanReq_accesses::total            676                       # number of ReadCleanReq accesses(hits+misses)
system.l2.ReadSharedReq_accesses::cpu.data      9884216                       # number of ReadSharedReq accesses(hits+misses)
system.l2.ReadSharedReq_accesses::total       9884216                       # number of ReadSharedReq accesses(hits+misses)
system.l2.demand_accesses::cpu.inst               676                       # number of demand (read+write) accesses
system.l2.demand_accesses::cpu.data          10225961                       # number of demand (read+write) accesses
system.l2.demand_accesses::total             10226637                       # number of demand (read+write) accesses
system.l2.overall_accesses::cpu.inst              676                       # number of overall (read+write) accesses
system.l2.overall_accesses::cpu.data         10225961                       # number of overall (read+write) accesses
system.l2.overall_accesses::total            10226637                       # number of overall (read+write) accesses
system.l2.ReadExReq_miss_rate::cpu.data      0.757667                       # miss rate for ReadExReq accesses
system.l2.ReadExReq_miss_rate::total         0.757667                       # miss rate for ReadExReq accesses
system.l2.ReadCleanReq_miss_rate::cpu.inst            1                       # miss rate for ReadCleanReq accesses
system.l2.ReadCleanReq_miss_rate::total             1                       # miss rate for ReadCleanReq accesses
system.l2.ReadSharedReq_miss_rate::cpu.data     0.977164                       # miss rate for ReadSharedReq accesses
system.l2.ReadSharedReq_miss_rate::total     0.977164                       # miss rate for ReadSharedReq accesses
system.l2.demand_miss_rate::cpu.inst                1                       # miss rate for demand accesses
system.l2.demand_miss_rate::cpu.data         0.969829                       # miss rate for demand accesses
system.l2.demand_miss_rate::total            0.969831                       # miss rate for demand accesses
system.l2.overall_miss_rate::cpu.inst               1                       # miss rate for overall accesses
system.l2.overall_miss_rate::cpu.data        0.969829                       # miss rate for overall accesses
system.l2.overall_miss_rate::total           0.969831                       # miss rate for overall accesses
system.l2.ReadExReq_avg_miss_latency::cpu.data 78132.766125                       # average ReadExReq miss latency
system.l2.ReadExReq_avg_miss_latency::total 78132.766125                       # average ReadExReq miss latency
system.l2.ReadCleanReq_avg_miss_latency::cpu.inst 77230.769231                       # average ReadCleanReq miss latency
system.l2.ReadCleanReq_avg_miss_latency::total 77230.769231                       # average ReadCleanReq miss latency
system.l2.ReadSharedReq_avg_miss_latency::cpu.data 91832.552674                       # average ReadSharedReq miss latency
system.l2.ReadSharedReq_avg_miss_latency::total 91832.552674                       # average ReadSharedReq miss latency
system.l2.demand_avg_miss_latency::cpu.inst 77230.769231                       # average overall miss latency
system.l2.demand_avg_miss_latency::cpu.data 91474.872175                       # average overall miss latency
system.l2.demand_avg_miss_latency::total 91473.901323                       # average overall miss latency
system.l2.overall_avg_miss_latency::cpu.inst 77230.769231                       # average overall miss latency
system.l2.overall_avg_miss_latency::cpu.data 91474.872175                       # average overall miss latency
system.l2.overall_avg_miss_latency::total 91473.901323                       # average overall miss latency
system.l2.blocked_cycles::no_mshrs                  0                       # number of cycles access was blocked
system.l2.blocked_cycles::no_targets                0                       # number of cycles access was blocked
system.l2.blocked::no_mshrs                         0                       # number of cycles access was blocked
system.l2.blocked::no_targets                       0                       # number of cycles access was blocked
system.l2.avg_blocked_cycles::no_mshrs            nan                       # average number of cycles each access was blocked
system.l2.avg_blocked_cycles::no_targets          nan                       # average number of cycles each access was blocked
system.l2.fast_writes                               0                       # number of fast writes performed
system.l2.cache_copies                              0                       # number of cache copies performed
system.l2.writebacks::writebacks              1346535                       # number of writebacks
system.l2.writebacks::total                   1346535                       # number of writebacks
system.l2.CleanEvict_mshr_misses::writebacks      8568675                       # number of CleanEvict MSHR misses
system.l2.CleanEvict_mshr_misses::total       8568675                       # number of CleanEvict MSHR misses
system.l2.ReadExReq_mshr_misses::cpu.data       258929                       # number of ReadExReq MSHR misses
system.l2.ReadExReq_mshr_misses::total         258929                       # number of ReadExReq MSHR misses
system.l2.ReadCleanReq_mshr_misses::cpu.inst          676                       # number of ReadCleanReq MSHR misses
system.l2.ReadCleanReq_mshr_misses::total          676                       # number of ReadCleanReq MSHR misses
system.l2.ReadSharedReq_mshr_misses::cpu.data      9658503                       # number of ReadSharedReq MSHR misses
system.l2.ReadSharedReq_mshr_misses::total      9658503                       # number of ReadSharedReq MSHR misses
system.l2.demand_mshr_misses::cpu.inst            676                       # number of demand (read+write) MSHR misses
system.l2.demand_mshr_misses::cpu.data        9917432                       # number of demand (read+write) MSHR misses
system.l2.demand_mshr_misses::total           9918108                       # number of demand (read+write) MSHR misses
system.l2.overall_mshr_misses::cpu.inst           676                       # number of overall MSHR misses
system.l2.overall_mshr_misses::cpu.data       9917432                       # number of overall MSHR misses
system.l2.overall_mshr_misses::total          9918108                       # number of overall MSHR misses
system.l2.ReadExReq_mshr_miss_latency::cpu.data  17641549000                       # number of ReadExReq MSHR miss cycles
system.l2.ReadExReq_mshr_miss_latency::total  17641549000                       # number of ReadExReq MSHR miss cycles
system.l2.ReadCleanReq_mshr_miss_latency::cpu.inst     45448000                       # number of ReadCleanReq MSHR miss cycles
system.l2.ReadCleanReq_mshr_miss_latency::total     45448000                       # number of ReadCleanReq MSHR miss cycles
system.l2.ReadSharedReq_mshr_miss_latency::cpu.data 790379955500                       # number of ReadSharedReq MSHR miss cycles
system.l2.ReadSharedReq_mshr_miss_latency::total 790379955500                       # number of ReadSharedReq MSHR miss cycles
system.l2.demand_mshr_miss_latency::cpu.inst     45448000                       # number of demand (read+write) MSHR miss cycles
system.l2.demand_mshr_miss_latency::cpu.data 808021504500                       # number of demand (read+write) MSHR miss cycles
system.l2.demand_mshr_miss_latency::total 808066952500                       # number of demand (read+write) MSHR miss cycles
system.l2.overall_mshr_miss_latency::cpu.inst     45448000                       # number of overall MSHR miss cycles
system.l2.overall_mshr_miss_latency::cpu.data 808021504500                       # number of overall MSHR miss cycles
system.l2.overall_mshr_miss_latency::total 808066952500                       # number of overall MSHR miss cycles
system.l2.CleanEvict_mshr_miss_rate::writebacks          inf                       # mshr miss rate for CleanEvict accesses
system.l2.CleanEvict_mshr_miss_rate::total          inf                       # mshr miss rate for CleanEvict accesses
system.l2.ReadExReq_mshr_miss_rate::cpu.data     0.757667                       # mshr miss rate for ReadExReq accesses
system.l2.ReadExReq_mshr_miss_rate::total     0.757667                       # mshr miss rate for ReadExReq accesses
system.l2.ReadCleanReq_mshr_miss_rate::cpu.inst            1                       # mshr miss rate for ReadCleanReq accesses
system.l2.ReadCleanReq_mshr_miss_rate::total            1                       # mshr miss rate for ReadCleanReq accesses
system.l2.ReadSharedReq_mshr_miss_rate::cpu.data     0.977164                       # mshr miss rate for ReadSharedReq accesses
system.l2.ReadSharedReq_mshr_miss_rate::total     0.977164                       # mshr miss rate for ReadSharedReq accesses
system.l2.demand_mshr_miss_rate::cpu.inst            1                       # mshr miss rate for demand accesses
system.l2.demand_mshr_miss_rate::cpu.data     0.969829                       # mshr miss rate for demand accesses
system.l2.demand_mshr_miss_rate::total       0.969831                       # mshr miss rate for demand accesses
system.l2.overall_mshr_miss_rate::cpu.inst            1                       # mshr miss rate for overall accesses
system.l2.overall_mshr_miss_rate::cpu.data     0.969829                       # mshr miss rate for overall accesses
system.l2.overall_mshr_miss_rate::total      0.969831                       # mshr miss rate for overall accesses
system.l2.ReadExReq_avg_mshr_miss_latency::cpu.data 68132.766125                       # average ReadExReq mshr miss latency
system.l2.ReadExReq_avg_mshr_miss_latency::total 68132.766125                       # average ReadExReq mshr miss latency
system.l2.ReadCleanReq_avg_mshr_miss_latency::cpu.inst 67230.769231                       # average ReadCleanReq mshr miss latency
system.l2.ReadCleanReq_avg_mshr_miss_latency::total 67230.769231                       # average ReadCleanReq mshr miss latency
system.l2.ReadSharedReq_avg_mshr_miss_latency::cpu.data 81832.552674                       # average ReadSharedReq mshr miss latency
system.l2.ReadSharedReq_avg_mshr_miss_latency::total 81832.552674                       # average ReadSharedReq mshr miss latency
system.l2.demand_avg_mshr_miss_latency::cpu.inst 67230.769231                       # average overall mshr miss latency
system.l2.demand_avg_mshr_miss_latency::cpu.data 81474.872175                       # average overall mshr miss latency
system.l2.demand_avg_mshr_miss_latency::total 81473.901323                       # average overall mshr miss latency
system.l2.overall_avg_mshr_miss_latency::cpu.inst 67230.769231                       # average overall mshr miss latency
system.l2.overall_avg_mshr_miss_latency::cpu.data 81474.872175                       # average overall mshr miss latency
system.l2.overall_avg_mshr_miss_latency::total 81473.901323                       # average overall mshr miss latency
system.l2.no_allocate_misses                        0                       # Number of misses that were no-allocate
system.membus.trans_dist::ReadResp            9659179                       # Transaction distribution
system.membus.trans_dist::WritebackDirty      1346535                       # Transaction distribution
system.membus.trans_dist::CleanEvict          8568696                       # Transaction distribution
system.membus.trans_dist::ReadExReq            258929                       # Transaction distribution
system.membus.trans_dist::ReadExResp           258929                       # Transaction distribution
system.membus.trans_dist::ReadSharedReq       9659179                       # Transaction distribution
system.membus.pkt_count_system.l2.mem_side::system.mem_ctrls.port     29751447                       # Packet count per connected master and slave (bytes)
system.membus.pkt_count_system.l2.mem_side::total     29751447                       # Packet count per connected master and slave (bytes)
system.membus.pkt_count::total               29751447                       # Packet count per connected master and slave (bytes)
system.membus.pkt_size_system.l2.mem_side::system.mem_ctrls.port    720937152                       # Cumulative packet size per connected master and slave (bytes)
system.membus.pkt_size_system.l2.mem_side::total    720937152                       # Cumulative packet size per connected master and slave (bytes)
system.membus.pkt_size::total               720937152                       # Cumulative packet size per connected master and slave (bytes)
system.membus.snoops                                0                       # Total snoops (count)
system.membus.snoop_fanout::samples          19833339                       # Request fanout histogram
system.membus.snoop_fanout::mean                    0                       # Request fanout histogram
system.membus.snoop_fanout::stdev                   0                       # Request fanout histogram
system.membus.snoop_fanout::underflows              0      0.00%      0.00% # Request fanout histogram
system.membus.snoop_fanout::0                19833339    100.00%    100.00% # Request fanout histogram
system.membus.snoop_fanout::1                       0      0.00%    100.00% # Request fanout histogram
system.membus.snoop_fanout::overflows               0      0.00%    100.00% # Request fanout histogram
system.membus.snoop_fanout::min_value               0                       # Request fanout histogram
system.membus.snoop_fanout::max_value               0                       # Request fanout histogram
system.membus.snoop_fanout::total            19833339                       # Request fanout histogram
system.membus.reqLayer2.occupancy         25226544500                       # Layer occupancy (ticks)
system.membus.reqLayer2.utilization               1.3                       # Layer utilization (%)
system.membus.respLayer1.occupancy        55391823750                       # Layer occupancy (ticks)
system.membus.respLayer1.utilization              2.9                       # Layer utilization (%)
system.tol2bus.snoop_filter.tot_requests     20450571                       # Total number of requests made to the snoop filter.
system.tol2bus.snoop_filter.hit_single_requests     10223934                       # Number of requests hitting in the snoop filter with a single holder of the requested data.
system.tol2bus.snoop_filter.hit_multi_requests            1                       # Number of requests hitting in the snoop filter with multiple (>1) holders of the requested data.
system.tol2bus.snoop_filter.tot_snoops        9884059                       # Total number of snoops made to the snoop filter.
system.tol2bus.snoop_filter.hit_single_snoops      9884058                       # Number of snoops hitting in the snoop filter with a single holder of the requested data.
system.tol2bus.snoop_filter.hit_multi_snoops            1                       # Number of snoops hitting in the snoop filter with multiple (>1) holders of the requested data.
system.tol2bus.trans_dist::ReadResp           9884892                       # Transaction distribution
system.tol2bus.trans_dist::WritebackDirty      3001772                       # Transaction distribution
system.tol2bus.trans_dist::WritebackClean           21                       # Transaction distribution
system.tol2bus.trans_dist::CleanEvict        18452755                       # Transaction distribution
system.tol2bus.trans_dist::ReadExReq           341745                       # Transaction distribution
system.tol2bus.trans_dist::ReadExResp          341745                       # Transaction distribution
system.tol2bus.trans_dist::ReadCleanReq           676                       # Transaction distribution
system.tol2bus.trans_dist::ReadSharedReq      9884216                       # Transaction distribution
system.tol2bus.pkt_count_system.cpu.icache.mem_side::system.l2.cpu_side         1373                       # Packet count per connected master and slave (bytes)
system.tol2bus.pkt_count_system.cpu.dcache.mem_side::system.l2.cpu_side     30675834                       # Packet count per connected master and slave (bytes)
system.tol2bus.pkt_count::total              30677207                       # Packet count per connected master and slave (bytes)
system.tol2bus.pkt_size_system.cpu.icache.mem_side::system.l2.cpu_side        44608                       # Cumulative packet size per connected master and slave (bytes)
system.tol2bus.pkt_size_system.cpu.dcache.mem_side::system.l2.cpu_side    760396672                       # Cumulative packet size per connected master and slave (bytes)
system.tol2bus.pkt_size::total              760441280                       # Cumulative packet size per connected master and slave (bytes)
system.tol2bus.snoops                        11230615                       # Total snoops (count)
system.tol2bus.snoop_fanout::samples         21457252                       # Request fanout histogram
system.tol2bus.snoop_fanout::mean            0.460640                       # Request fanout histogram
system.tol2bus.snoop_fanout::stdev           0.498448                       # Request fanout histogram
system.tol2bus.snoop_fanout::underflows             0      0.00%      0.00% # Request fanout histogram
system.tol2bus.snoop_fanout::0               11573192     53.94%     53.94% # Request fanout histogram
system.tol2bus.snoop_fanout::1                9884059     46.06%    100.00% # Request fanout histogram
system.tol2bus.snoop_fanout::2                      1      0.00%    100.00% # Request fanout histogram
system.tol2bus.snoop_fanout::3                      0      0.00%    100.00% # Request fanout histogram
system.tol2bus.snoop_fanout::4                      0      0.00%    100.00% # Request fanout histogram
system.tol2bus.snoop_fanout::overflows              0      0.00%    100.00% # Request fanout histogram
system.tol2bus.snoop_fanout::min_value              0                       # Request fanout histogram
system.tol2bus.snoop_fanout::max_value              2                       # Request fanout histogram
system.tol2bus.snoop_fanout::total           21457252                       # Request fanout histogram
system.tol2bus.reqLayer0.occupancy        11880543500                       # Layer occupancy (ticks)
system.tol2bus.reqLayer0.utilization              0.6                       # Layer utilization (%)
system.tol2bus.respLayer0.occupancy           1014000                       # Layer occupancy (ticks)
system.tol2bus.respLayer0.utilization             0.0                       # Layer utilization (%)
system.tol2bus.respLayer1.occupancy       15338941500                       # Layer occupancy (ticks)
system.tol2bus.respLayer1.utilization             0.8                       # Layer utilization (%)

---------- End Simulation Statistics   ----------
