
---------- Begin Simulation Statistics ----------
sim_seconds                                  1.061455                       # Number of seconds simulated
sim_ticks                                1061454927500                       # Number of ticks simulated
final_tick                               1061454927500                       # Number of ticks from beginning of simulation (restored from checkpoints and never reset)
sim_freq                                 1000000000000                       # Frequency of simulated ticks
host_inst_rate                                  37450                       # Simulator instruction rate (inst/s)
host_op_rate                                    54711                       # Simulator op (including micro ops) rate (op/s)
host_tick_rate                               79503627                       # Simulator tick rate (ticks/s)
host_mem_usage                                 828672                       # Number of bytes of host memory used
host_seconds                                 13351.03                       # Real time elapsed on the host
sim_insts                                   500000001                       # Number of instructions simulated
sim_ops                                     730450447                       # Number of ops (including micro ops) simulated
system.voltage_domain.voltage                       1                       # Voltage in Volts
system.clk_domain.clock                          1000                       # Clock period in ticks
system.mem_ctrls.bytes_read::cpu.inst           63552                       # Number of bytes read from this memory
system.mem_ctrls.bytes_read::cpu.data        48032448                       # Number of bytes read from this memory
system.mem_ctrls.bytes_read::total           48096000                       # Number of bytes read from this memory
system.mem_ctrls.bytes_inst_read::cpu.inst        63552                       # Number of instructions bytes read from this memory
system.mem_ctrls.bytes_inst_read::total         63552                       # Number of instructions bytes read from this memory
system.mem_ctrls.bytes_written::writebacks     24881728                       # Number of bytes written to this memory
system.mem_ctrls.bytes_written::total        24881728                       # Number of bytes written to this memory
system.mem_ctrls.num_reads::cpu.inst              993                       # Number of read requests responded to by this memory
system.mem_ctrls.num_reads::cpu.data           750507                       # Number of read requests responded to by this memory
system.mem_ctrls.num_reads::total              751500                       # Number of read requests responded to by this memory
system.mem_ctrls.num_writes::writebacks        388777                       # Number of write requests responded to by this memory
system.mem_ctrls.num_writes::total             388777                       # Number of write requests responded to by this memory
system.mem_ctrls.bw_read::cpu.inst              59873                       # Total read bandwidth from this memory (bytes/s)
system.mem_ctrls.bw_read::cpu.data           45251519                       # Total read bandwidth from this memory (bytes/s)
system.mem_ctrls.bw_read::total              45311392                       # Total read bandwidth from this memory (bytes/s)
system.mem_ctrls.bw_inst_read::cpu.inst         59873                       # Instruction read bandwidth from this memory (bytes/s)
system.mem_ctrls.bw_inst_read::total            59873                       # Instruction read bandwidth from this memory (bytes/s)
system.mem_ctrls.bw_write::writebacks        23441154                       # Write bandwidth from this memory (bytes/s)
system.mem_ctrls.bw_write::total             23441154                       # Write bandwidth from this memory (bytes/s)
system.mem_ctrls.bw_total::writebacks        23441154                       # Total bandwidth to/from this memory (bytes/s)
system.mem_ctrls.bw_total::cpu.inst             59873                       # Total bandwidth to/from this memory (bytes/s)
system.mem_ctrls.bw_total::cpu.data          45251519                       # Total bandwidth to/from this memory (bytes/s)
system.mem_ctrls.bw_total::total             68752545                       # Total bandwidth to/from this memory (bytes/s)
system.mem_ctrls.readReqs                      751500                       # Number of read requests accepted
system.mem_ctrls.writeReqs                     388777                       # Number of write requests accepted
system.mem_ctrls.readBursts                    751500                       # Number of DRAM read bursts, including those serviced by the write queue
system.mem_ctrls.writeBursts                   388777                       # Number of DRAM write bursts, including those merged in the write queue
system.mem_ctrls.bytesReadDRAM               47996160                       # Total number of bytes read from DRAM
system.mem_ctrls.bytesReadWrQ                   99840                       # Total number of bytes read from write queue
system.mem_ctrls.bytesWritten                24877504                       # Total number of bytes written to DRAM
system.mem_ctrls.bytesReadSys                48096000                       # Total read bytes from the system interface side
system.mem_ctrls.bytesWrittenSys             24881728                       # Total written bytes from the system interface side
system.mem_ctrls.servicedByWrQ                   1560                       # Number of DRAM read bursts serviced by the write queue
system.mem_ctrls.mergedWrBursts                    36                       # Number of DRAM write bursts merged with an existing one
system.mem_ctrls.neitherReadNorWriteReqs       345383                       # Number of requests that are neither read nor write
system.mem_ctrls.perBankRdBursts::0             49024                       # Per bank write bursts
system.mem_ctrls.perBankRdBursts::1             47517                       # Per bank write bursts
system.mem_ctrls.perBankRdBursts::2             47927                       # Per bank write bursts
system.mem_ctrls.perBankRdBursts::3             45000                       # Per bank write bursts
system.mem_ctrls.perBankRdBursts::4             44489                       # Per bank write bursts
system.mem_ctrls.perBankRdBursts::5             44158                       # Per bank write bursts
system.mem_ctrls.perBankRdBursts::6             45994                       # Per bank write bursts
system.mem_ctrls.perBankRdBursts::7             45154                       # Per bank write bursts
system.mem_ctrls.perBankRdBursts::8             43023                       # Per bank write bursts
system.mem_ctrls.perBankRdBursts::9             43392                       # Per bank write bursts
system.mem_ctrls.perBankRdBursts::10            47181                       # Per bank write bursts
system.mem_ctrls.perBankRdBursts::11            47602                       # Per bank write bursts
system.mem_ctrls.perBankRdBursts::12            49421                       # Per bank write bursts
system.mem_ctrls.perBankRdBursts::13            49369                       # Per bank write bursts
system.mem_ctrls.perBankRdBursts::14            49761                       # Per bank write bursts
system.mem_ctrls.perBankRdBursts::15            50928                       # Per bank write bursts
system.mem_ctrls.perBankWrBursts::0             25147                       # Per bank write bursts
system.mem_ctrls.perBankWrBursts::1             24652                       # Per bank write bursts
system.mem_ctrls.perBankWrBursts::2             25929                       # Per bank write bursts
system.mem_ctrls.perBankWrBursts::3             23727                       # Per bank write bursts
system.mem_ctrls.perBankWrBursts::4             23142                       # Per bank write bursts
system.mem_ctrls.perBankWrBursts::5             22680                       # Per bank write bursts
system.mem_ctrls.perBankWrBursts::6             23927                       # Per bank write bursts
system.mem_ctrls.perBankWrBursts::7             23833                       # Per bank write bursts
system.mem_ctrls.perBankWrBursts::8             22879                       # Per bank write bursts
system.mem_ctrls.perBankWrBursts::9             22996                       # Per bank write bursts
system.mem_ctrls.perBankWrBursts::10            24358                       # Per bank write bursts
system.mem_ctrls.perBankWrBursts::11            24133                       # Per bank write bursts
system.mem_ctrls.perBankWrBursts::12            24701                       # Per bank write bursts
system.mem_ctrls.perBankWrBursts::13            25019                       # Per bank write bursts
system.mem_ctrls.perBankWrBursts::14            25284                       # Per bank write bursts
system.mem_ctrls.perBankWrBursts::15            26304                       # Per bank write bursts
system.mem_ctrls.numRdRetry                         0                       # Number of times read queue was full causing retry
system.mem_ctrls.numWrRetry                         0                       # Number of times write queue was full causing retry
system.mem_ctrls.totGap                  1061422172500                       # Total gap between requests
system.mem_ctrls.readPktSize::0                     0                       # Read request sizes (log2)
system.mem_ctrls.readPktSize::1                     0                       # Read request sizes (log2)
system.mem_ctrls.readPktSize::2                     0                       # Read request sizes (log2)
system.mem_ctrls.readPktSize::3                     0                       # Read request sizes (log2)
system.mem_ctrls.readPktSize::4                     0                       # Read request sizes (log2)
system.mem_ctrls.readPktSize::5                     0                       # Read request sizes (log2)
system.mem_ctrls.readPktSize::6                751500                       # Read request sizes (log2)
system.mem_ctrls.writePktSize::0                    0                       # Write request sizes (log2)
system.mem_ctrls.writePktSize::1                    0                       # Write request sizes (log2)
system.mem_ctrls.writePktSize::2                    0                       # Write request sizes (log2)
system.mem_ctrls.writePktSize::3                    0                       # Write request sizes (log2)
system.mem_ctrls.writePktSize::4                    0                       # Write request sizes (log2)
system.mem_ctrls.writePktSize::5                    0                       # Write request sizes (log2)
system.mem_ctrls.writePktSize::6               388777                       # Write request sizes (log2)
system.mem_ctrls.rdQLenPdf::0                  741333                       # What read queue length does an incoming req see
system.mem_ctrls.rdQLenPdf::1                    8083                       # What read queue length does an incoming req see
system.mem_ctrls.rdQLenPdf::2                     410                       # What read queue length does an incoming req see
system.mem_ctrls.rdQLenPdf::3                     114                       # What read queue length does an incoming req see
system.mem_ctrls.rdQLenPdf::4                       0                       # What read queue length does an incoming req see
system.mem_ctrls.rdQLenPdf::5                       0                       # What read queue length does an incoming req see
system.mem_ctrls.rdQLenPdf::6                       0                       # What read queue length does an incoming req see
system.mem_ctrls.rdQLenPdf::7                       0                       # What read queue length does an incoming req see
system.mem_ctrls.rdQLenPdf::8                       0                       # What read queue length does an incoming req see
system.mem_ctrls.rdQLenPdf::9                       0                       # What read queue length does an incoming req see
system.mem_ctrls.rdQLenPdf::10                      0                       # What read queue length does an incoming req see
system.mem_ctrls.rdQLenPdf::11                      0                       # What read queue length does an incoming req see
system.mem_ctrls.rdQLenPdf::12                      0                       # What read queue length does an incoming req see
system.mem_ctrls.rdQLenPdf::13                      0                       # What read queue length does an incoming req see
system.mem_ctrls.rdQLenPdf::14                      0                       # What read queue length does an incoming req see
system.mem_ctrls.rdQLenPdf::15                      0                       # What read queue length does an incoming req see
system.mem_ctrls.rdQLenPdf::16                      0                       # What read queue length does an incoming req see
system.mem_ctrls.rdQLenPdf::17                      0                       # What read queue length does an incoming req see
system.mem_ctrls.rdQLenPdf::18                      0                       # What read queue length does an incoming req see
system.mem_ctrls.rdQLenPdf::19                      0                       # What read queue length does an incoming req see
system.mem_ctrls.rdQLenPdf::20                      0                       # What read queue length does an incoming req see
system.mem_ctrls.rdQLenPdf::21                      0                       # What read queue length does an incoming req see
system.mem_ctrls.rdQLenPdf::22                      0                       # What read queue length does an incoming req see
system.mem_ctrls.rdQLenPdf::23                      0                       # What read queue length does an incoming req see
system.mem_ctrls.rdQLenPdf::24                      0                       # What read queue length does an incoming req see
system.mem_ctrls.rdQLenPdf::25                      0                       # What read queue length does an incoming req see
system.mem_ctrls.rdQLenPdf::26                      0                       # What read queue length does an incoming req see
system.mem_ctrls.rdQLenPdf::27                      0                       # What read queue length does an incoming req see
system.mem_ctrls.rdQLenPdf::28                      0                       # What read queue length does an incoming req see
system.mem_ctrls.rdQLenPdf::29                      0                       # What read queue length does an incoming req see
system.mem_ctrls.rdQLenPdf::30                      0                       # What read queue length does an incoming req see
system.mem_ctrls.rdQLenPdf::31                      0                       # What read queue length does an incoming req see
system.mem_ctrls.wrQLenPdf::0                       1                       # What write queue length does an incoming req see
system.mem_ctrls.wrQLenPdf::1                       1                       # What write queue length does an incoming req see
system.mem_ctrls.wrQLenPdf::2                       1                       # What write queue length does an incoming req see
system.mem_ctrls.wrQLenPdf::3                       1                       # What write queue length does an incoming req see
system.mem_ctrls.wrQLenPdf::4                       1                       # What write queue length does an incoming req see
system.mem_ctrls.wrQLenPdf::5                       1                       # What write queue length does an incoming req see
system.mem_ctrls.wrQLenPdf::6                       1                       # What write queue length does an incoming req see
system.mem_ctrls.wrQLenPdf::7                       1                       # What write queue length does an incoming req see
system.mem_ctrls.wrQLenPdf::8                       1                       # What write queue length does an incoming req see
system.mem_ctrls.wrQLenPdf::9                       1                       # What write queue length does an incoming req see
system.mem_ctrls.wrQLenPdf::10                      1                       # What write queue length does an incoming req see
system.mem_ctrls.wrQLenPdf::11                      1                       # What write queue length does an incoming req see
system.mem_ctrls.wrQLenPdf::12                      1                       # What write queue length does an incoming req see
system.mem_ctrls.wrQLenPdf::13                      1                       # What write queue length does an incoming req see
system.mem_ctrls.wrQLenPdf::14                      1                       # What write queue length does an incoming req see
system.mem_ctrls.wrQLenPdf::15                  14926                       # What write queue length does an incoming req see
system.mem_ctrls.wrQLenPdf::16                  15728                       # What write queue length does an incoming req see
system.mem_ctrls.wrQLenPdf::17                  22348                       # What write queue length does an incoming req see
system.mem_ctrls.wrQLenPdf::18                  22388                       # What write queue length does an incoming req see
system.mem_ctrls.wrQLenPdf::19                  22375                       # What write queue length does an incoming req see
system.mem_ctrls.wrQLenPdf::20                  22369                       # What write queue length does an incoming req see
system.mem_ctrls.wrQLenPdf::21                  22361                       # What write queue length does an incoming req see
system.mem_ctrls.wrQLenPdf::22                  22361                       # What write queue length does an incoming req see
system.mem_ctrls.wrQLenPdf::23                  22364                       # What write queue length does an incoming req see
system.mem_ctrls.wrQLenPdf::24                  22355                       # What write queue length does an incoming req see
system.mem_ctrls.wrQLenPdf::25                  22365                       # What write queue length does an incoming req see
system.mem_ctrls.wrQLenPdf::26                  22369                       # What write queue length does an incoming req see
system.mem_ctrls.wrQLenPdf::27                  22469                       # What write queue length does an incoming req see
system.mem_ctrls.wrQLenPdf::28                  22514                       # What write queue length does an incoming req see
system.mem_ctrls.wrQLenPdf::29                  22363                       # What write queue length does an incoming req see
system.mem_ctrls.wrQLenPdf::30                  22357                       # What write queue length does an incoming req see
system.mem_ctrls.wrQLenPdf::31                  22353                       # What write queue length does an incoming req see
system.mem_ctrls.wrQLenPdf::32                  22353                       # What write queue length does an incoming req see
system.mem_ctrls.wrQLenPdf::33                      8                       # What write queue length does an incoming req see
system.mem_ctrls.wrQLenPdf::34                      0                       # What write queue length does an incoming req see
system.mem_ctrls.wrQLenPdf::35                      0                       # What write queue length does an incoming req see
system.mem_ctrls.wrQLenPdf::36                      0                       # What write queue length does an incoming req see
system.mem_ctrls.wrQLenPdf::37                      0                       # What write queue length does an incoming req see
system.mem_ctrls.wrQLenPdf::38                      0                       # What write queue length does an incoming req see
system.mem_ctrls.wrQLenPdf::39                      0                       # What write queue length does an incoming req see
system.mem_ctrls.wrQLenPdf::40                      0                       # What write queue length does an incoming req see
system.mem_ctrls.wrQLenPdf::41                      0                       # What write queue length does an incoming req see
system.mem_ctrls.wrQLenPdf::42                      0                       # What write queue length does an incoming req see
system.mem_ctrls.wrQLenPdf::43                      0                       # What write queue length does an incoming req see
system.mem_ctrls.wrQLenPdf::44                      0                       # What write queue length does an incoming req see
system.mem_ctrls.wrQLenPdf::45                      0                       # What write queue length does an incoming req see
system.mem_ctrls.wrQLenPdf::46                      0                       # What write queue length does an incoming req see
system.mem_ctrls.wrQLenPdf::47                      0                       # What write queue length does an incoming req see
system.mem_ctrls.wrQLenPdf::48                      0                       # What write queue length does an incoming req see
system.mem_ctrls.wrQLenPdf::49                      0                       # What write queue length does an incoming req see
system.mem_ctrls.wrQLenPdf::50                      0                       # What write queue length does an incoming req see
system.mem_ctrls.wrQLenPdf::51                      0                       # What write queue length does an incoming req see
system.mem_ctrls.wrQLenPdf::52                      0                       # What write queue length does an incoming req see
system.mem_ctrls.wrQLenPdf::53                      0                       # What write queue length does an incoming req see
system.mem_ctrls.wrQLenPdf::54                      0                       # What write queue length does an incoming req see
system.mem_ctrls.wrQLenPdf::55                      0                       # What write queue length does an incoming req see
system.mem_ctrls.wrQLenPdf::56                      0                       # What write queue length does an incoming req see
system.mem_ctrls.wrQLenPdf::57                      0                       # What write queue length does an incoming req see
system.mem_ctrls.wrQLenPdf::58                      0                       # What write queue length does an incoming req see
system.mem_ctrls.wrQLenPdf::59                      0                       # What write queue length does an incoming req see
system.mem_ctrls.wrQLenPdf::60                      0                       # What write queue length does an incoming req see
system.mem_ctrls.wrQLenPdf::61                      0                       # What write queue length does an incoming req see
system.mem_ctrls.wrQLenPdf::62                      0                       # What write queue length does an incoming req see
system.mem_ctrls.wrQLenPdf::63                      0                       # What write queue length does an incoming req see
system.mem_ctrls.bytesPerActivate::samples       579152                       # Bytes accessed per row activation
system.mem_ctrls.bytesPerActivate::mean    125.828218                       # Bytes accessed per row activation
system.mem_ctrls.bytesPerActivate::gmean    92.261674                       # Bytes accessed per row activation
system.mem_ctrls.bytesPerActivate::stdev   155.470136                       # Bytes accessed per row activation
system.mem_ctrls.bytesPerActivate::0-127       400653     69.18%     69.18% # Bytes accessed per row activation
system.mem_ctrls.bytesPerActivate::128-255       116522     20.12%     89.30% # Bytes accessed per row activation
system.mem_ctrls.bytesPerActivate::256-383        26013      4.49%     93.79% # Bytes accessed per row activation
system.mem_ctrls.bytesPerActivate::384-511         9736      1.68%     95.47% # Bytes accessed per row activation
system.mem_ctrls.bytesPerActivate::512-639        12750      2.20%     97.67% # Bytes accessed per row activation
system.mem_ctrls.bytesPerActivate::640-767         2181      0.38%     98.05% # Bytes accessed per row activation
system.mem_ctrls.bytesPerActivate::768-895         1714      0.30%     98.35% # Bytes accessed per row activation
system.mem_ctrls.bytesPerActivate::896-1023         1421      0.25%     98.59% # Bytes accessed per row activation
system.mem_ctrls.bytesPerActivate::1024-1151         8162      1.41%    100.00% # Bytes accessed per row activation
system.mem_ctrls.bytesPerActivate::total       579152                       # Bytes accessed per row activation
system.mem_ctrls.rdPerTurnAround::samples        22353                       # Reads before turning the bus around for writes
system.mem_ctrls.rdPerTurnAround::mean      32.821411                       # Reads before turning the bus around for writes
system.mem_ctrls.rdPerTurnAround::gmean     25.596840                       # Reads before turning the bus around for writes
system.mem_ctrls.rdPerTurnAround::stdev    108.493057                       # Reads before turning the bus around for writes
system.mem_ctrls.rdPerTurnAround::0-511         22315     99.83%     99.83% # Reads before turning the bus around for writes
system.mem_ctrls.rdPerTurnAround::512-1023           31      0.14%     99.97% # Reads before turning the bus around for writes
system.mem_ctrls.rdPerTurnAround::1024-1535            1      0.00%     99.97% # Reads before turning the bus around for writes
system.mem_ctrls.rdPerTurnAround::1536-2047            1      0.00%     99.98% # Reads before turning the bus around for writes
system.mem_ctrls.rdPerTurnAround::2560-3071            1      0.00%     99.98% # Reads before turning the bus around for writes
system.mem_ctrls.rdPerTurnAround::5632-6143            1      0.00%     99.99% # Reads before turning the bus around for writes
system.mem_ctrls.rdPerTurnAround::7168-7679            1      0.00%     99.99% # Reads before turning the bus around for writes
system.mem_ctrls.rdPerTurnAround::7680-8191            1      0.00%    100.00% # Reads before turning the bus around for writes
system.mem_ctrls.rdPerTurnAround::8192-8703            1      0.00%    100.00% # Reads before turning the bus around for writes
system.mem_ctrls.rdPerTurnAround::total         22353                       # Reads before turning the bus around for writes
system.mem_ctrls.wrPerTurnAround::samples        22353                       # Writes before turning the bus around for reads
system.mem_ctrls.wrPerTurnAround::mean      17.389657                       # Writes before turning the bus around for reads
system.mem_ctrls.wrPerTurnAround::gmean     17.364054                       # Writes before turning the bus around for reads
system.mem_ctrls.wrPerTurnAround::stdev      0.931102                       # Writes before turning the bus around for reads
system.mem_ctrls.wrPerTurnAround::16             6624     29.63%     29.63% # Writes before turning the bus around for reads
system.mem_ctrls.wrPerTurnAround::17              793      3.55%     33.18% # Writes before turning the bus around for reads
system.mem_ctrls.wrPerTurnAround::18            14547     65.08%     98.26% # Writes before turning the bus around for reads
system.mem_ctrls.wrPerTurnAround::19              380      1.70%     99.96% # Writes before turning the bus around for reads
system.mem_ctrls.wrPerTurnAround::20                9      0.04%    100.00% # Writes before turning the bus around for reads
system.mem_ctrls.wrPerTurnAround::total         22353                       # Writes before turning the bus around for reads
system.mem_ctrls.totQLat                  11024041750                       # Total ticks spent queuing
system.mem_ctrls.totMemAccLat             25085416750                       # Total ticks spent from burst creation until serviced by the DRAM
system.mem_ctrls.totBusLat                 3749700000                       # Total ticks spent in databus transfers
system.mem_ctrls.avgQLat                     14699.90                       # Average queueing delay per DRAM burst
system.mem_ctrls.avgBusLat                    5000.00                       # Average bus latency per DRAM burst
system.mem_ctrls.avgMemAccLat                33449.90                       # Average memory access latency per DRAM burst
system.mem_ctrls.avgRdBW                        45.22                       # Average DRAM read bandwidth in MiByte/s
system.mem_ctrls.avgWrBW                        23.44                       # Average achieved write bandwidth in MiByte/s
system.mem_ctrls.avgRdBWSys                     45.31                       # Average system read bandwidth in MiByte/s
system.mem_ctrls.avgWrBWSys                     23.44                       # Average system write bandwidth in MiByte/s
system.mem_ctrls.peakBW                      12800.00                       # Theoretical peak bandwidth in MiByte/s
system.mem_ctrls.busUtil                         0.54                       # Data bus utilization in percentage
system.mem_ctrls.busUtilRead                     0.35                       # Data bus utilization in percentage for reads
system.mem_ctrls.busUtilWrite                    0.18                       # Data bus utilization in percentage for writes
system.mem_ctrls.avgRdQLen                       1.00                       # Average read queue length when enqueuing
system.mem_ctrls.avgWrQLen                      23.42                       # Average write queue length when enqueuing
system.mem_ctrls.readRowHits                   355778                       # Number of row buffer hits during reads
system.mem_ctrls.writeRowHits                  203721                       # Number of row buffer hits during writes
system.mem_ctrls.readRowHitRate                 47.44                       # Row buffer hit rate for reads
system.mem_ctrls.writeRowHitRate                52.41                       # Row buffer hit rate for writes
system.mem_ctrls.avgGap                     930845.90                       # Average gap between requests
system.mem_ctrls.pageHitRate                    49.14                       # Row buffer hit rate, read and write combined
system.mem_ctrls_0.actEnergy               2155174560                       # Energy for activate commands per rank (pJ)
system.mem_ctrls_0.preEnergy               1175938500                       # Energy for precharge commands per rank (pJ)
system.mem_ctrls_0.readEnergy              2880251400                       # Energy for read commands per rank (pJ)
system.mem_ctrls_0.writeEnergy             1250879760                       # Energy for write commands per rank (pJ)
system.mem_ctrls_0.refreshEnergy          69328933440                       # Energy for refresh commands per rank (pJ)
system.mem_ctrls_0.actBackEnergy         226181086110                       # Energy for active background per rank (pJ)
system.mem_ctrls_0.preBackEnergy         438467333250                       # Energy for precharge background per rank (pJ)
system.mem_ctrls_0.totalEnergy           741439597020                       # Total energy per rank (pJ)
system.mem_ctrls_0.averagePower            698.513833                       # Core power per rank (mW)
system.mem_ctrls_0.memoryStateTime::IDLE 728065897000                       # Time in different power states
system.mem_ctrls_0.memoryStateTime::REF   35444240000                       # Time in different power states
system.mem_ctrls_0.memoryStateTime::PRE_PDN            0                       # Time in different power states
system.mem_ctrls_0.memoryStateTime::ACT  297942868000                       # Time in different power states
system.mem_ctrls_0.memoryStateTime::ACT_PDN            0                       # Time in different power states
system.mem_ctrls_1.actEnergy               2223214560                       # Energy for activate commands per rank (pJ)
system.mem_ctrls_1.preEnergy               1213063500                       # Energy for precharge commands per rank (pJ)
system.mem_ctrls_1.readEnergy              2969280600                       # Energy for read commands per rank (pJ)
system.mem_ctrls_1.writeEnergy             1267967520                       # Energy for write commands per rank (pJ)
system.mem_ctrls_1.refreshEnergy          69328933440                       # Energy for refresh commands per rank (pJ)
system.mem_ctrls_1.actBackEnergy         229250619045                       # Energy for active background per rank (pJ)
system.mem_ctrls_1.preBackEnergy         435774760500                       # Energy for precharge background per rank (pJ)
system.mem_ctrls_1.totalEnergy           742027839165                       # Total energy per rank (pJ)
system.mem_ctrls_1.averagePower            699.068018                       # Core power per rank (mW)
system.mem_ctrls_1.memoryStateTime::IDLE 723555233250                       # Time in different power states
system.mem_ctrls_1.memoryStateTime::REF   35444240000                       # Time in different power states
system.mem_ctrls_1.memoryStateTime::PRE_PDN            0                       # Time in different power states
system.mem_ctrls_1.memoryStateTime::ACT  302453531750                       # Time in different power states
system.mem_ctrls_1.memoryStateTime::ACT_PDN            0                       # Time in different power states
system.cpu_voltage_domain.voltage                   1                       # Voltage in Volts
system.cpu_clk_domain.clock                       500                       # Clock period in ticks
system.cpu.apic_clk_domain.clock                 8000                       # Clock period in ticks
system.cpu.workload.num_syscalls                   86                       # Number of system calls
system.cpu.numCycles                       2122909855                       # number of cpu cycles simulated
system.cpu.numWorkItemsStarted                      0                       # number of work items this cpu started
system.cpu.numWorkItemsCompleted                    0                       # number of work items this cpu completed
system.cpu.committedInsts                   500000001                       # Number of instructions committed
system.cpu.committedOps                     730450447                       # Number of ops (including micro ops) committed
system.cpu.num_int_alu_accesses             729688907                       # Number of integer alu accesses
system.cpu.num_fp_alu_accesses                    663                       # Number of float alu accesses
system.cpu.num_func_calls                     1453961                       # number of times a function call or return occured
system.cpu.num_conditional_control_insts     31770496                       # number of instructions that are conditional controls
system.cpu.num_int_insts                    729688907                       # number of integer instructions
system.cpu.num_fp_insts                           663                       # number of float instructions
system.cpu.num_int_register_reads          1698743410                       # number of times the integer registers were read
system.cpu.num_int_register_writes          621892952                       # number of times the integer registers were written
system.cpu.num_fp_register_reads                 1009                       # number of times the floating registers were read
system.cpu.num_fp_register_writes                 429                       # number of times the floating registers were written
system.cpu.num_cc_register_reads            180840558                       # number of times the CC registers were read
system.cpu.num_cc_register_writes           276245127                       # number of times the CC registers were written
system.cpu.num_mem_refs                     295985459                       # number of memory refs
system.cpu.num_load_insts                   225946750                       # Number of load instructions
system.cpu.num_store_insts                   70038709                       # Number of store instructions
system.cpu.num_idle_cycles                          0                       # Number of idle cycles
system.cpu.num_busy_cycles                 2122909855                       # Number of busy cycles
system.cpu.not_idle_fraction                        1                       # Percentage of non-idle cycles
system.cpu.idle_fraction                            0                       # Percentage of idle cycles
system.cpu.Branches                          37843296                       # Number of branches fetched
system.cpu.op_class::No_OpClass                 94739      0.01%      0.01% # Class of executed instruction
system.cpu.op_class::IntAlu                 434349070     59.46%     59.48% # Class of executed instruction
system.cpu.op_class::IntMult                    20662      0.00%     59.48% # Class of executed instruction
system.cpu.op_class::IntDiv                       119      0.00%     59.48% # Class of executed instruction
system.cpu.op_class::FloatAdd                     398      0.00%     59.48% # Class of executed instruction
system.cpu.op_class::FloatCmp                       0      0.00%     59.48% # Class of executed instruction
system.cpu.op_class::FloatCvt                       0      0.00%     59.48% # Class of executed instruction
system.cpu.op_class::FloatMult                      0      0.00%     59.48% # Class of executed instruction
system.cpu.op_class::FloatDiv                       0      0.00%     59.48% # Class of executed instruction
system.cpu.op_class::FloatSqrt                      0      0.00%     59.48% # Class of executed instruction
system.cpu.op_class::SimdAdd                        0      0.00%     59.48% # Class of executed instruction
system.cpu.op_class::SimdAddAcc                     0      0.00%     59.48% # Class of executed instruction
system.cpu.op_class::SimdAlu                        0      0.00%     59.48% # Class of executed instruction
system.cpu.op_class::SimdCmp                        0      0.00%     59.48% # Class of executed instruction
system.cpu.op_class::SimdCvt                        0      0.00%     59.48% # Class of executed instruction
system.cpu.op_class::SimdMisc                       0      0.00%     59.48% # Class of executed instruction
system.cpu.op_class::SimdMult                       0      0.00%     59.48% # Class of executed instruction
system.cpu.op_class::SimdMultAcc                    0      0.00%     59.48% # Class of executed instruction
system.cpu.op_class::SimdShift                      0      0.00%     59.48% # Class of executed instruction
system.cpu.op_class::SimdShiftAcc                   0      0.00%     59.48% # Class of executed instruction
system.cpu.op_class::SimdSqrt                       0      0.00%     59.48% # Class of executed instruction
system.cpu.op_class::SimdFloatAdd                   0      0.00%     59.48% # Class of executed instruction
system.cpu.op_class::SimdFloatAlu                   0      0.00%     59.48% # Class of executed instruction
system.cpu.op_class::SimdFloatCmp                   0      0.00%     59.48% # Class of executed instruction
system.cpu.op_class::SimdFloatCvt                   0      0.00%     59.48% # Class of executed instruction
system.cpu.op_class::SimdFloatDiv                   0      0.00%     59.48% # Class of executed instruction
system.cpu.op_class::SimdFloatMisc                  0      0.00%     59.48% # Class of executed instruction
system.cpu.op_class::SimdFloatMult                  0      0.00%     59.48% # Class of executed instruction
system.cpu.op_class::SimdFloatMultAcc               0      0.00%     59.48% # Class of executed instruction
system.cpu.op_class::SimdFloatSqrt                  0      0.00%     59.48% # Class of executed instruction
system.cpu.op_class::MemRead                225946750     30.93%     90.41% # Class of executed instruction
system.cpu.op_class::MemWrite                70038709      9.59%    100.00% # Class of executed instruction
system.cpu.op_class::IprAccess                      0      0.00%    100.00% # Class of executed instruction
system.cpu.op_class::InstPrefetch                   0      0.00%    100.00% # Class of executed instruction
system.cpu.op_class::total                  730450447                       # Class of executed instruction
system.cpu.dcache.tags.replacements           2042575                       # number of replacements
system.cpu.dcache.tags.tagsinuse          2042.202335                       # Cycle average of tags in use
system.cpu.dcache.tags.total_refs           293940844                       # Total number of references to valid blocks.
system.cpu.dcache.tags.sampled_refs           2044623                       # Sample count of references to valid blocks.
system.cpu.dcache.tags.avg_refs            143.762857                       # Average number of references to valid blocks.
system.cpu.dcache.tags.warmup_cycle        3523770500                       # Cycle when the warmup percentage was hit.
system.cpu.dcache.tags.occ_blocks::cpu.data  2042.202335                       # Average occupied blocks per requestor
system.cpu.dcache.tags.occ_percent::cpu.data     0.997169                       # Average percentage of cache occupancy
system.cpu.dcache.tags.occ_percent::total     0.997169                       # Average percentage of cache occupancy
system.cpu.dcache.tags.occ_task_id_blocks::1024         2048                       # Occupied blocks per task id
system.cpu.dcache.tags.age_task_id_blocks_1024::1            2                       # Occupied blocks per task id
system.cpu.dcache.tags.age_task_id_blocks_1024::2           16                       # Occupied blocks per task id
system.cpu.dcache.tags.age_task_id_blocks_1024::3         1420                       # Occupied blocks per task id
system.cpu.dcache.tags.age_task_id_blocks_1024::4          610                       # Occupied blocks per task id
system.cpu.dcache.tags.occ_task_id_percent::1024            1                       # Percentage of cache occupancy per task id
system.cpu.dcache.tags.tag_accesses         594015557                       # Number of tag accesses
system.cpu.dcache.tags.data_accesses        594015557                       # Number of data accesses
system.cpu.dcache.ReadReq_hits::cpu.data    224491119                       # number of ReadReq hits
system.cpu.dcache.ReadReq_hits::total       224491119                       # number of ReadReq hits
system.cpu.dcache.WriteReq_hits::cpu.data     69449725                       # number of WriteReq hits
system.cpu.dcache.WriteReq_hits::total       69449725                       # number of WriteReq hits
system.cpu.dcache.demand_hits::cpu.data     293940844                       # number of demand (read+write) hits
system.cpu.dcache.demand_hits::total        293940844                       # number of demand (read+write) hits
system.cpu.dcache.overall_hits::cpu.data    293940844                       # number of overall hits
system.cpu.dcache.overall_hits::total       293940844                       # number of overall hits
system.cpu.dcache.ReadReq_misses::cpu.data      1439254                       # number of ReadReq misses
system.cpu.dcache.ReadReq_misses::total       1439254                       # number of ReadReq misses
system.cpu.dcache.WriteReq_misses::cpu.data       588985                       # number of WriteReq misses
system.cpu.dcache.WriteReq_misses::total       588985                       # number of WriteReq misses
system.cpu.dcache.SoftPFReq_misses::cpu.data        16384                       # number of SoftPFReq misses
system.cpu.dcache.SoftPFReq_misses::total        16384                       # number of SoftPFReq misses
system.cpu.dcache.demand_misses::cpu.data      2028239                       # number of demand (read+write) misses
system.cpu.dcache.demand_misses::total        2028239                       # number of demand (read+write) misses
system.cpu.dcache.overall_misses::cpu.data      2044623                       # number of overall misses
system.cpu.dcache.overall_misses::total       2044623                       # number of overall misses
system.cpu.dcache.ReadReq_miss_latency::cpu.data  49192881000                       # number of ReadReq miss cycles
system.cpu.dcache.ReadReq_miss_latency::total  49192881000                       # number of ReadReq miss cycles
system.cpu.dcache.WriteReq_miss_latency::cpu.data  30721400000                       # number of WriteReq miss cycles
system.cpu.dcache.WriteReq_miss_latency::total  30721400000                       # number of WriteReq miss cycles
system.cpu.dcache.demand_miss_latency::cpu.data  79914281000                       # number of demand (read+write) miss cycles
system.cpu.dcache.demand_miss_latency::total  79914281000                       # number of demand (read+write) miss cycles
system.cpu.dcache.overall_miss_latency::cpu.data  79914281000                       # number of overall miss cycles
system.cpu.dcache.overall_miss_latency::total  79914281000                       # number of overall miss cycles
system.cpu.dcache.ReadReq_accesses::cpu.data    225930373                       # number of ReadReq accesses(hits+misses)
system.cpu.dcache.ReadReq_accesses::total    225930373                       # number of ReadReq accesses(hits+misses)
system.cpu.dcache.WriteReq_accesses::cpu.data     70038710                       # number of WriteReq accesses(hits+misses)
system.cpu.dcache.WriteReq_accesses::total     70038710                       # number of WriteReq accesses(hits+misses)
system.cpu.dcache.SoftPFReq_accesses::cpu.data        16384                       # number of SoftPFReq accesses(hits+misses)
system.cpu.dcache.SoftPFReq_accesses::total        16384                       # number of SoftPFReq accesses(hits+misses)
system.cpu.dcache.demand_accesses::cpu.data    295969083                       # number of demand (read+write) accesses
system.cpu.dcache.demand_accesses::total    295969083                       # number of demand (read+write) accesses
system.cpu.dcache.overall_accesses::cpu.data    295985467                       # number of overall (read+write) accesses
system.cpu.dcache.overall_accesses::total    295985467                       # number of overall (read+write) accesses
system.cpu.dcache.ReadReq_miss_rate::cpu.data     0.006370                       # miss rate for ReadReq accesses
system.cpu.dcache.ReadReq_miss_rate::total     0.006370                       # miss rate for ReadReq accesses
system.cpu.dcache.WriteReq_miss_rate::cpu.data     0.008409                       # miss rate for WriteReq accesses
system.cpu.dcache.WriteReq_miss_rate::total     0.008409                       # miss rate for WriteReq accesses
system.cpu.dcache.SoftPFReq_miss_rate::cpu.data            1                       # miss rate for SoftPFReq accesses
system.cpu.dcache.SoftPFReq_miss_rate::total            1                       # miss rate for SoftPFReq accesses
system.cpu.dcache.demand_miss_rate::cpu.data     0.006853                       # miss rate for demand accesses
system.cpu.dcache.demand_miss_rate::total     0.006853                       # miss rate for demand accesses
system.cpu.dcache.overall_miss_rate::cpu.data     0.006908                       # miss rate for overall accesses
system.cpu.dcache.overall_miss_rate::total     0.006908                       # miss rate for overall accesses
system.cpu.dcache.ReadReq_avg_miss_latency::cpu.data 34179.429760                       # average ReadReq miss latency
system.cpu.dcache.ReadReq_avg_miss_latency::total 34179.429760                       # average ReadReq miss latency
system.cpu.dcache.WriteReq_avg_miss_latency::cpu.data 52159.902205                       # average WriteReq miss latency
system.cpu.dcache.WriteReq_avg_miss_latency::total 52159.902205                       # average WriteReq miss latency
system.cpu.dcache.demand_avg_miss_latency::cpu.data 39400.820613                       # average overall miss latency
system.cpu.dcache.demand_avg_miss_latency::total 39400.820613                       # average overall miss latency
system.cpu.dcache.overall_avg_miss_latency::cpu.data 39085.093438                       # average overall miss latency
system.cpu.dcache.overall_avg_miss_latency::total 39085.093438                       # average overall miss latency
system.cpu.dcache.blocked_cycles::no_mshrs       232608                       # number of cycles access was blocked
system.cpu.dcache.blocked_cycles::no_targets            0                       # number of cycles access was blocked
system.cpu.dcache.blocked::no_mshrs              5503                       # number of cycles access was blocked
system.cpu.dcache.blocked::no_targets               0                       # number of cycles access was blocked
system.cpu.dcache.avg_blocked_cycles::no_mshrs    42.269308                       # average number of cycles each access was blocked
system.cpu.dcache.avg_blocked_cycles::no_targets          nan                       # average number of cycles each access was blocked
system.cpu.dcache.fast_writes                       0                       # number of fast writes performed
system.cpu.dcache.cache_copies                      0                       # number of cache copies performed
system.cpu.dcache.writebacks::writebacks       948242                       # number of writebacks
system.cpu.dcache.writebacks::total            948242                       # number of writebacks
system.cpu.dcache.ReadReq_mshr_misses::cpu.data      1439254                       # number of ReadReq MSHR misses
system.cpu.dcache.ReadReq_mshr_misses::total      1439254                       # number of ReadReq MSHR misses
system.cpu.dcache.WriteReq_mshr_misses::cpu.data       588985                       # number of WriteReq MSHR misses
system.cpu.dcache.WriteReq_mshr_misses::total       588985                       # number of WriteReq MSHR misses
system.cpu.dcache.SoftPFReq_mshr_misses::cpu.data        16384                       # number of SoftPFReq MSHR misses
system.cpu.dcache.SoftPFReq_mshr_misses::total        16384                       # number of SoftPFReq MSHR misses
system.cpu.dcache.demand_mshr_misses::cpu.data      2028239                       # number of demand (read+write) MSHR misses
system.cpu.dcache.demand_mshr_misses::total      2028239                       # number of demand (read+write) MSHR misses
system.cpu.dcache.overall_mshr_misses::cpu.data      2044623                       # number of overall MSHR misses
system.cpu.dcache.overall_mshr_misses::total      2044623                       # number of overall MSHR misses
system.cpu.dcache.ReadReq_mshr_miss_latency::cpu.data  47753627000                       # number of ReadReq MSHR miss cycles
system.cpu.dcache.ReadReq_mshr_miss_latency::total  47753627000                       # number of ReadReq MSHR miss cycles
system.cpu.dcache.WriteReq_mshr_miss_latency::cpu.data  30132415000                       # number of WriteReq MSHR miss cycles
system.cpu.dcache.WriteReq_mshr_miss_latency::total  30132415000                       # number of WriteReq MSHR miss cycles
system.cpu.dcache.SoftPFReq_mshr_miss_latency::cpu.data   1282234964                       # number of SoftPFReq MSHR miss cycles
system.cpu.dcache.SoftPFReq_mshr_miss_latency::total   1282234964                       # number of SoftPFReq MSHR miss cycles
system.cpu.dcache.demand_mshr_miss_latency::cpu.data  77886042000                       # number of demand (read+write) MSHR miss cycles
system.cpu.dcache.demand_mshr_miss_latency::total  77886042000                       # number of demand (read+write) MSHR miss cycles
system.cpu.dcache.overall_mshr_miss_latency::cpu.data  79168276964                       # number of overall MSHR miss cycles
system.cpu.dcache.overall_mshr_miss_latency::total  79168276964                       # number of overall MSHR miss cycles
system.cpu.dcache.ReadReq_mshr_miss_rate::cpu.data     0.006370                       # mshr miss rate for ReadReq accesses
system.cpu.dcache.ReadReq_mshr_miss_rate::total     0.006370                       # mshr miss rate for ReadReq accesses
system.cpu.dcache.WriteReq_mshr_miss_rate::cpu.data     0.008409                       # mshr miss rate for WriteReq accesses
system.cpu.dcache.WriteReq_mshr_miss_rate::total     0.008409                       # mshr miss rate for WriteReq accesses
system.cpu.dcache.SoftPFReq_mshr_miss_rate::cpu.data            1                       # mshr miss rate for SoftPFReq accesses
system.cpu.dcache.SoftPFReq_mshr_miss_rate::total            1                       # mshr miss rate for SoftPFReq accesses
system.cpu.dcache.demand_mshr_miss_rate::cpu.data     0.006853                       # mshr miss rate for demand accesses
system.cpu.dcache.demand_mshr_miss_rate::total     0.006853                       # mshr miss rate for demand accesses
system.cpu.dcache.overall_mshr_miss_rate::cpu.data     0.006908                       # mshr miss rate for overall accesses
system.cpu.dcache.overall_mshr_miss_rate::total     0.006908                       # mshr miss rate for overall accesses
system.cpu.dcache.ReadReq_avg_mshr_miss_latency::cpu.data 33179.429760                       # average ReadReq mshr miss latency
system.cpu.dcache.ReadReq_avg_mshr_miss_latency::total 33179.429760                       # average ReadReq mshr miss latency
system.cpu.dcache.WriteReq_avg_mshr_miss_latency::cpu.data 51159.902205                       # average WriteReq mshr miss latency
system.cpu.dcache.WriteReq_avg_mshr_miss_latency::total 51159.902205                       # average WriteReq mshr miss latency
system.cpu.dcache.SoftPFReq_avg_mshr_miss_latency::cpu.data 78261.411377                       # average SoftPFReq mshr miss latency
system.cpu.dcache.SoftPFReq_avg_mshr_miss_latency::total 78261.411377                       # average SoftPFReq mshr miss latency
system.cpu.dcache.demand_avg_mshr_miss_latency::cpu.data 38400.820613                       # average overall mshr miss latency
system.cpu.dcache.demand_avg_mshr_miss_latency::total 38400.820613                       # average overall mshr miss latency
system.cpu.dcache.overall_avg_mshr_miss_latency::cpu.data 38720.232025                       # average overall mshr miss latency
system.cpu.dcache.overall_avg_mshr_miss_latency::total 38720.232025                       # average overall mshr miss latency
system.cpu.dcache.no_allocate_misses                0                       # Number of misses that were no-allocate
system.cpu.dtb_walker_cache.tags.replacements            0                       # number of replacements
system.cpu.dtb_walker_cache.tags.tagsinuse            0                       # Cycle average of tags in use
system.cpu.dtb_walker_cache.tags.total_refs            0                       # Total number of references to valid blocks.
system.cpu.dtb_walker_cache.tags.sampled_refs            0                       # Sample count of references to valid blocks.
system.cpu.dtb_walker_cache.tags.avg_refs          nan                       # Average number of references to valid blocks.
system.cpu.dtb_walker_cache.tags.warmup_cycle            0                       # Cycle when the warmup percentage was hit.
system.cpu.dtb_walker_cache.tags.tag_accesses            0                       # Number of tag accesses
system.cpu.dtb_walker_cache.tags.data_accesses            0                       # Number of data accesses
system.cpu.dtb_walker_cache.blocked_cycles::no_mshrs            0                       # number of cycles access was blocked
system.cpu.dtb_walker_cache.blocked_cycles::no_targets            0                       # number of cycles access was blocked
system.cpu.dtb_walker_cache.blocked::no_mshrs            0                       # number of cycles access was blocked
system.cpu.dtb_walker_cache.blocked::no_targets            0                       # number of cycles access was blocked
system.cpu.dtb_walker_cache.avg_blocked_cycles::no_mshrs          nan                       # average number of cycles each access was blocked
system.cpu.dtb_walker_cache.avg_blocked_cycles::no_targets          nan                       # average number of cycles each access was blocked
system.cpu.dtb_walker_cache.fast_writes             0                       # number of fast writes performed
system.cpu.dtb_walker_cache.cache_copies            0                       # number of cache copies performed
system.cpu.dtb_walker_cache.no_allocate_misses            0                       # Number of misses that were no-allocate
system.cpu.icache.tags.replacements                 0                       # number of replacements
system.cpu.icache.tags.tagsinuse           679.666688                       # Cycle average of tags in use
system.cpu.icache.tags.total_refs           687396869                       # Total number of references to valid blocks.
system.cpu.icache.tags.sampled_refs               994                       # Sample count of references to valid blocks.
system.cpu.icache.tags.avg_refs          691546.145875                       # Average number of references to valid blocks.
system.cpu.icache.tags.warmup_cycle                 0                       # Cycle when the warmup percentage was hit.
system.cpu.icache.tags.occ_blocks::cpu.inst   679.666688                       # Average occupied blocks per requestor
system.cpu.icache.tags.occ_percent::cpu.inst     0.331868                       # Average percentage of cache occupancy
system.cpu.icache.tags.occ_percent::total     0.331868                       # Average percentage of cache occupancy
system.cpu.icache.tags.occ_task_id_blocks::1024          994                       # Occupied blocks per task id
system.cpu.icache.tags.age_task_id_blocks_1024::1            7                       # Occupied blocks per task id
system.cpu.icache.tags.age_task_id_blocks_1024::3           25                       # Occupied blocks per task id
system.cpu.icache.tags.age_task_id_blocks_1024::4          962                       # Occupied blocks per task id
system.cpu.icache.tags.occ_task_id_percent::1024     0.485352                       # Percentage of cache occupancy per task id
system.cpu.icache.tags.tag_accesses        5499183898                       # Number of tag accesses
system.cpu.icache.tags.data_accesses       5499183898                       # Number of data accesses
system.cpu.icache.ReadReq_hits::cpu.inst    687396869                       # number of ReadReq hits
system.cpu.icache.ReadReq_hits::total       687396869                       # number of ReadReq hits
system.cpu.icache.demand_hits::cpu.inst     687396869                       # number of demand (read+write) hits
system.cpu.icache.demand_hits::total        687396869                       # number of demand (read+write) hits
system.cpu.icache.overall_hits::cpu.inst    687396869                       # number of overall hits
system.cpu.icache.overall_hits::total       687396869                       # number of overall hits
system.cpu.icache.ReadReq_misses::cpu.inst          994                       # number of ReadReq misses
system.cpu.icache.ReadReq_misses::total           994                       # number of ReadReq misses
system.cpu.icache.demand_misses::cpu.inst          994                       # number of demand (read+write) misses
system.cpu.icache.demand_misses::total            994                       # number of demand (read+write) misses
system.cpu.icache.overall_misses::cpu.inst          994                       # number of overall misses
system.cpu.icache.overall_misses::total           994                       # number of overall misses
system.cpu.icache.ReadReq_miss_latency::cpu.inst     78243500                       # number of ReadReq miss cycles
system.cpu.icache.ReadReq_miss_latency::total     78243500                       # number of ReadReq miss cycles
system.cpu.icache.demand_miss_latency::cpu.inst     78243500                       # number of demand (read+write) miss cycles
system.cpu.icache.demand_miss_latency::total     78243500                       # number of demand (read+write) miss cycles
system.cpu.icache.overall_miss_latency::cpu.inst     78243500                       # number of overall miss cycles
system.cpu.icache.overall_miss_latency::total     78243500                       # number of overall miss cycles
system.cpu.icache.ReadReq_accesses::cpu.inst    687397863                       # number of ReadReq accesses(hits+misses)
system.cpu.icache.ReadReq_accesses::total    687397863                       # number of ReadReq accesses(hits+misses)
system.cpu.icache.demand_accesses::cpu.inst    687397863                       # number of demand (read+write) accesses
system.cpu.icache.demand_accesses::total    687397863                       # number of demand (read+write) accesses
system.cpu.icache.overall_accesses::cpu.inst    687397863                       # number of overall (read+write) accesses
system.cpu.icache.overall_accesses::total    687397863                       # number of overall (read+write) accesses
system.cpu.icache.ReadReq_miss_rate::cpu.inst     0.000001                       # miss rate for ReadReq accesses
system.cpu.icache.ReadReq_miss_rate::total     0.000001                       # miss rate for ReadReq accesses
system.cpu.icache.demand_miss_rate::cpu.inst     0.000001                       # miss rate for demand accesses
system.cpu.icache.demand_miss_rate::total     0.000001                       # miss rate for demand accesses
system.cpu.icache.overall_miss_rate::cpu.inst     0.000001                       # miss rate for overall accesses
system.cpu.icache.overall_miss_rate::total     0.000001                       # miss rate for overall accesses
system.cpu.icache.ReadReq_avg_miss_latency::cpu.inst 78715.794769                       # average ReadReq miss latency
system.cpu.icache.ReadReq_avg_miss_latency::total 78715.794769                       # average ReadReq miss latency
system.cpu.icache.demand_avg_miss_latency::cpu.inst 78715.794769                       # average overall miss latency
system.cpu.icache.demand_avg_miss_latency::total 78715.794769                       # average overall miss latency
system.cpu.icache.overall_avg_miss_latency::cpu.inst 78715.794769                       # average overall miss latency
system.cpu.icache.overall_avg_miss_latency::total 78715.794769                       # average overall miss latency
system.cpu.icache.blocked_cycles::no_mshrs            0                       # number of cycles access was blocked
system.cpu.icache.blocked_cycles::no_targets            0                       # number of cycles access was blocked
system.cpu.icache.blocked::no_mshrs                 0                       # number of cycles access was blocked
system.cpu.icache.blocked::no_targets               0                       # number of cycles access was blocked
system.cpu.icache.avg_blocked_cycles::no_mshrs          nan                       # average number of cycles each access was blocked
system.cpu.icache.avg_blocked_cycles::no_targets          nan                       # average number of cycles each access was blocked
system.cpu.icache.fast_writes                       0                       # number of fast writes performed
system.cpu.icache.cache_copies                      0                       # number of cache copies performed
system.cpu.icache.ReadReq_mshr_misses::cpu.inst          994                       # number of ReadReq MSHR misses
system.cpu.icache.ReadReq_mshr_misses::total          994                       # number of ReadReq MSHR misses
system.cpu.icache.demand_mshr_misses::cpu.inst          994                       # number of demand (read+write) MSHR misses
system.cpu.icache.demand_mshr_misses::total          994                       # number of demand (read+write) MSHR misses
system.cpu.icache.overall_mshr_misses::cpu.inst          994                       # number of overall MSHR misses
system.cpu.icache.overall_mshr_misses::total          994                       # number of overall MSHR misses
system.cpu.icache.ReadReq_mshr_miss_latency::cpu.inst     77249500                       # number of ReadReq MSHR miss cycles
system.cpu.icache.ReadReq_mshr_miss_latency::total     77249500                       # number of ReadReq MSHR miss cycles
system.cpu.icache.demand_mshr_miss_latency::cpu.inst     77249500                       # number of demand (read+write) MSHR miss cycles
system.cpu.icache.demand_mshr_miss_latency::total     77249500                       # number of demand (read+write) MSHR miss cycles
system.cpu.icache.overall_mshr_miss_latency::cpu.inst     77249500                       # number of overall MSHR miss cycles
system.cpu.icache.overall_mshr_miss_latency::total     77249500                       # number of overall MSHR miss cycles
system.cpu.icache.ReadReq_mshr_miss_rate::cpu.inst     0.000001                       # mshr miss rate for ReadReq accesses
system.cpu.icache.ReadReq_mshr_miss_rate::total     0.000001                       # mshr miss rate for ReadReq accesses
system.cpu.icache.demand_mshr_miss_rate::cpu.inst     0.000001                       # mshr miss rate for demand accesses
system.cpu.icache.demand_mshr_miss_rate::total     0.000001                       # mshr miss rate for demand accesses
system.cpu.icache.overall_mshr_miss_rate::cpu.inst     0.000001                       # mshr miss rate for overall accesses
system.cpu.icache.overall_mshr_miss_rate::total     0.000001                       # mshr miss rate for overall accesses
system.cpu.icache.ReadReq_avg_mshr_miss_latency::cpu.inst 77715.794769                       # average ReadReq mshr miss latency
system.cpu.icache.ReadReq_avg_mshr_miss_latency::total 77715.794769                       # average ReadReq mshr miss latency
system.cpu.icache.demand_avg_mshr_miss_latency::cpu.inst 77715.794769                       # average overall mshr miss latency
system.cpu.icache.demand_avg_mshr_miss_latency::total 77715.794769                       # average overall mshr miss latency
system.cpu.icache.overall_avg_mshr_miss_latency::cpu.inst 77715.794769                       # average overall mshr miss latency
system.cpu.icache.overall_avg_mshr_miss_latency::total 77715.794769                       # average overall mshr miss latency
system.cpu.icache.no_allocate_misses                0                       # Number of misses that were no-allocate
system.cpu.itb_walker_cache.tags.replacements            0                       # number of replacements
system.cpu.itb_walker_cache.tags.tagsinuse            0                       # Cycle average of tags in use
system.cpu.itb_walker_cache.tags.total_refs            0                       # Total number of references to valid blocks.
system.cpu.itb_walker_cache.tags.sampled_refs            0                       # Sample count of references to valid blocks.
system.cpu.itb_walker_cache.tags.avg_refs          nan                       # Average number of references to valid blocks.
system.cpu.itb_walker_cache.tags.warmup_cycle            0                       # Cycle when the warmup percentage was hit.
system.cpu.itb_walker_cache.tags.tag_accesses            0                       # Number of tag accesses
system.cpu.itb_walker_cache.tags.data_accesses            0                       # Number of data accesses
system.cpu.itb_walker_cache.blocked_cycles::no_mshrs            0                       # number of cycles access was blocked
system.cpu.itb_walker_cache.blocked_cycles::no_targets            0                       # number of cycles access was blocked
system.cpu.itb_walker_cache.blocked::no_mshrs            0                       # number of cycles access was blocked
system.cpu.itb_walker_cache.blocked::no_targets            0                       # number of cycles access was blocked
system.cpu.itb_walker_cache.avg_blocked_cycles::no_mshrs          nan                       # average number of cycles each access was blocked
system.cpu.itb_walker_cache.avg_blocked_cycles::no_targets          nan                       # average number of cycles each access was blocked
system.cpu.itb_walker_cache.fast_writes             0                       # number of fast writes performed
system.cpu.itb_walker_cache.cache_copies            0                       # number of cache copies performed
system.cpu.itb_walker_cache.no_allocate_misses            0                       # Number of misses that were no-allocate
system.l2.tags.replacements                    757244                       # number of replacements
system.l2.tags.tagsinuse                 15645.536665                       # Cycle average of tags in use
system.l2.tags.total_refs                     2657722                       # Total number of references to valid blocks.
system.l2.tags.sampled_refs                    773159                       # Sample count of references to valid blocks.
system.l2.tags.avg_refs                      3.437484                       # Average number of references to valid blocks.
system.l2.tags.warmup_cycle              133424907500                       # Cycle when the warmup percentage was hit.
system.l2.tags.occ_blocks::writebacks     7490.917013                       # Average occupied blocks per requestor
system.l2.tags.occ_blocks::cpu.inst          3.888901                       # Average occupied blocks per requestor
system.l2.tags.occ_blocks::cpu.data       8150.730751                       # Average occupied blocks per requestor
system.l2.tags.occ_percent::writebacks       0.457209                       # Average percentage of cache occupancy
system.l2.tags.occ_percent::cpu.inst         0.000237                       # Average percentage of cache occupancy
system.l2.tags.occ_percent::cpu.data         0.497481                       # Average percentage of cache occupancy
system.l2.tags.occ_percent::total            0.954928                       # Average percentage of cache occupancy
system.l2.tags.occ_task_id_blocks::1024         15915                       # Occupied blocks per task id
system.l2.tags.age_task_id_blocks_1024::1            9                       # Occupied blocks per task id
system.l2.tags.age_task_id_blocks_1024::2           11                       # Occupied blocks per task id
system.l2.tags.age_task_id_blocks_1024::3           40                       # Occupied blocks per task id
system.l2.tags.age_task_id_blocks_1024::4        15855                       # Occupied blocks per task id
system.l2.tags.occ_task_id_percent::1024     0.971375                       # Percentage of cache occupancy per task id
system.l2.tags.tag_accesses                   5450335                       # Number of tag accesses
system.l2.tags.data_accesses                  5450335                       # Number of data accesses
system.l2.WritebackDirty_hits::writebacks       948242                       # number of WritebackDirty hits
system.l2.WritebackDirty_hits::total           948242                       # number of WritebackDirty hits
system.l2.ReadExReq_hits::cpu.data             280565                       # number of ReadExReq hits
system.l2.ReadExReq_hits::total                280565                       # number of ReadExReq hits
system.l2.ReadCleanReq_hits::cpu.inst               1                       # number of ReadCleanReq hits
system.l2.ReadCleanReq_hits::total                  1                       # number of ReadCleanReq hits
system.l2.ReadSharedReq_hits::cpu.data        1013551                       # number of ReadSharedReq hits
system.l2.ReadSharedReq_hits::total           1013551                       # number of ReadSharedReq hits
system.l2.demand_hits::cpu.inst                     1                       # number of demand (read+write) hits
system.l2.demand_hits::cpu.data               1294116                       # number of demand (read+write) hits
system.l2.demand_hits::total                  1294117                       # number of demand (read+write) hits
system.l2.overall_hits::cpu.inst                    1                       # number of overall hits
system.l2.overall_hits::cpu.data              1294116                       # number of overall hits
system.l2.overall_hits::total                 1294117                       # number of overall hits
system.l2.ReadExReq_misses::cpu.data           308420                       # number of ReadExReq misses
system.l2.ReadExReq_misses::total              308420                       # number of ReadExReq misses
system.l2.ReadCleanReq_misses::cpu.inst           993                       # number of ReadCleanReq misses
system.l2.ReadCleanReq_misses::total              993                       # number of ReadCleanReq misses
system.l2.ReadSharedReq_misses::cpu.data       442087                       # number of ReadSharedReq misses
system.l2.ReadSharedReq_misses::total          442087                       # number of ReadSharedReq misses
system.l2.demand_misses::cpu.inst                 993                       # number of demand (read+write) misses
system.l2.demand_misses::cpu.data              750507                       # number of demand (read+write) misses
system.l2.demand_misses::total                 751500                       # number of demand (read+write) misses
system.l2.overall_misses::cpu.inst                993                       # number of overall misses
system.l2.overall_misses::cpu.data             750507                       # number of overall misses
system.l2.overall_misses::total                751500                       # number of overall misses
system.l2.ReadExReq_miss_latency::cpu.data  26303004000                       # number of ReadExReq miss cycles
system.l2.ReadExReq_miss_latency::total   26303004000                       # number of ReadExReq miss cycles
system.l2.ReadCleanReq_miss_latency::cpu.inst     75746500                       # number of ReadCleanReq miss cycles
system.l2.ReadCleanReq_miss_latency::total     75746500                       # number of ReadCleanReq miss cycles
system.l2.ReadSharedReq_miss_latency::cpu.data  36210044500                       # number of ReadSharedReq miss cycles
system.l2.ReadSharedReq_miss_latency::total  36210044500                       # number of ReadSharedReq miss cycles
system.l2.demand_miss_latency::cpu.inst      75746500                       # number of demand (read+write) miss cycles
system.l2.demand_miss_latency::cpu.data   62513048500                       # number of demand (read+write) miss cycles
system.l2.demand_miss_latency::total      62588795000                       # number of demand (read+write) miss cycles
system.l2.overall_miss_latency::cpu.inst     75746500                       # number of overall miss cycles
system.l2.overall_miss_latency::cpu.data  62513048500                       # number of overall miss cycles
system.l2.overall_miss_latency::total     62588795000                       # number of overall miss cycles
system.l2.WritebackDirty_accesses::writebacks       948242                       # number of WritebackDirty accesses(hits+misses)
system.l2.WritebackDirty_accesses::total       948242                       # number of WritebackDirty accesses(hits+misses)
system.l2.ReadExReq_accesses::cpu.data         588985                       # number of ReadExReq accesses(hits+misses)
system.l2.ReadExReq_accesses::total            588985                       # number of ReadExReq accesses(hits+misses)
system.l2.ReadCleanReq_accesses::cpu.inst          994                       # number of ReadCleanReq accesses(hits+misses)
system.l2.ReadCleanReq_accesses::total            994                       # number of ReadCleanReq accesses(hits+misses)
system.l2.ReadSharedReq_accesses::cpu.data      1455638                       # number of ReadSharedReq accesses(hits+misses)
system.l2.ReadSharedReq_accesses::total       1455638                       # number of ReadSharedReq accesses(hits+misses)
system.l2.demand_accesses::cpu.inst               994                       # number of demand (read+write) accesses
system.l2.demand_accesses::cpu.data           2044623                       # number of demand (read+write) accesses
system.l2.demand_accesses::total              2045617                       # number of demand (read+write) accesses
system.l2.overall_accesses::cpu.inst              994                       # number of overall (read+write) accesses
system.l2.overall_accesses::cpu.data          2044623                       # number of overall (read+write) accesses
system.l2.overall_accesses::total             2045617                       # number of overall (read+write) accesses
system.l2.ReadExReq_miss_rate::cpu.data      0.523647                       # miss rate for ReadExReq accesses
system.l2.ReadExReq_miss_rate::total         0.523647                       # miss rate for ReadExReq accesses
system.l2.ReadCleanReq_miss_rate::cpu.inst     0.998994                       # miss rate for ReadCleanReq accesses
system.l2.ReadCleanReq_miss_rate::total      0.998994                       # miss rate for ReadCleanReq accesses
system.l2.ReadSharedReq_miss_rate::cpu.data     0.303707                       # miss rate for ReadSharedReq accesses
system.l2.ReadSharedReq_miss_rate::total     0.303707                       # miss rate for ReadSharedReq accesses
system.l2.demand_miss_rate::cpu.inst         0.998994                       # miss rate for demand accesses
system.l2.demand_miss_rate::cpu.data         0.367064                       # miss rate for demand accesses
system.l2.demand_miss_rate::total            0.367371                       # miss rate for demand accesses
system.l2.overall_miss_rate::cpu.inst        0.998994                       # miss rate for overall accesses
system.l2.overall_miss_rate::cpu.data        0.367064                       # miss rate for overall accesses
system.l2.overall_miss_rate::total           0.367371                       # miss rate for overall accesses
system.l2.ReadExReq_avg_miss_latency::cpu.data 85283.068543                       # average ReadExReq miss latency
system.l2.ReadExReq_avg_miss_latency::total 85283.068543                       # average ReadExReq miss latency
system.l2.ReadCleanReq_avg_miss_latency::cpu.inst 76280.463243                       # average ReadCleanReq miss latency
system.l2.ReadCleanReq_avg_miss_latency::total 76280.463243                       # average ReadCleanReq miss latency
system.l2.ReadSharedReq_avg_miss_latency::cpu.data 81907.055625                       # average ReadSharedReq miss latency
system.l2.ReadSharedReq_avg_miss_latency::total 81907.055625                       # average ReadSharedReq miss latency
system.l2.demand_avg_miss_latency::cpu.inst 76280.463243                       # average overall miss latency
system.l2.demand_avg_miss_latency::cpu.data 83294.424303                       # average overall miss latency
system.l2.demand_avg_miss_latency::total 83285.156354                       # average overall miss latency
system.l2.overall_avg_miss_latency::cpu.inst 76280.463243                       # average overall miss latency
system.l2.overall_avg_miss_latency::cpu.data 83294.424303                       # average overall miss latency
system.l2.overall_avg_miss_latency::total 83285.156354                       # average overall miss latency
system.l2.blocked_cycles::no_mshrs                  0                       # number of cycles access was blocked
system.l2.blocked_cycles::no_targets                0                       # number of cycles access was blocked
system.l2.blocked::no_mshrs                         0                       # number of cycles access was blocked
system.l2.blocked::no_targets                       0                       # number of cycles access was blocked
system.l2.avg_blocked_cycles::no_mshrs            nan                       # average number of cycles each access was blocked
system.l2.avg_blocked_cycles::no_targets          nan                       # average number of cycles each access was blocked
system.l2.fast_writes                               0                       # number of fast writes performed
system.l2.cache_copies                              0                       # number of cache copies performed
system.l2.writebacks::writebacks               388777                       # number of writebacks
system.l2.writebacks::total                    388777                       # number of writebacks
system.l2.CleanEvict_mshr_misses::writebacks        68091                       # number of CleanEvict MSHR misses
system.l2.CleanEvict_mshr_misses::total         68091                       # number of CleanEvict MSHR misses
system.l2.ReadExReq_mshr_misses::cpu.data       308420                       # number of ReadExReq MSHR misses
system.l2.ReadExReq_mshr_misses::total         308420                       # number of ReadExReq MSHR misses
system.l2.ReadCleanReq_mshr_misses::cpu.inst          993                       # number of ReadCleanReq MSHR misses
system.l2.ReadCleanReq_mshr_misses::total          993                       # number of ReadCleanReq MSHR misses
system.l2.ReadSharedReq_mshr_misses::cpu.data       442087                       # number of ReadSharedReq MSHR misses
system.l2.ReadSharedReq_mshr_misses::total       442087                       # number of ReadSharedReq MSHR misses
system.l2.demand_mshr_misses::cpu.inst            993                       # number of demand (read+write) MSHR misses
system.l2.demand_mshr_misses::cpu.data         750507                       # number of demand (read+write) MSHR misses
system.l2.demand_mshr_misses::total            751500                       # number of demand (read+write) MSHR misses
system.l2.overall_mshr_misses::cpu.inst           993                       # number of overall MSHR misses
system.l2.overall_mshr_misses::cpu.data        750507                       # number of overall MSHR misses
system.l2.overall_mshr_misses::total           751500                       # number of overall MSHR misses
system.l2.ReadExReq_mshr_miss_latency::cpu.data  23218804000                       # number of ReadExReq MSHR miss cycles
system.l2.ReadExReq_mshr_miss_latency::total  23218804000                       # number of ReadExReq MSHR miss cycles
system.l2.ReadCleanReq_mshr_miss_latency::cpu.inst     65816500                       # number of ReadCleanReq MSHR miss cycles
system.l2.ReadCleanReq_mshr_miss_latency::total     65816500                       # number of ReadCleanReq MSHR miss cycles
system.l2.ReadSharedReq_mshr_miss_latency::cpu.data  31789174500                       # number of ReadSharedReq MSHR miss cycles
system.l2.ReadSharedReq_mshr_miss_latency::total  31789174500                       # number of ReadSharedReq MSHR miss cycles
system.l2.demand_mshr_miss_latency::cpu.inst     65816500                       # number of demand (read+write) MSHR miss cycles
system.l2.demand_mshr_miss_latency::cpu.data  55007978500                       # number of demand (read+write) MSHR miss cycles
system.l2.demand_mshr_miss_latency::total  55073795000                       # number of demand (read+write) MSHR miss cycles
system.l2.overall_mshr_miss_latency::cpu.inst     65816500                       # number of overall MSHR miss cycles
system.l2.overall_mshr_miss_latency::cpu.data  55007978500                       # number of overall MSHR miss cycles
system.l2.overall_mshr_miss_latency::total  55073795000                       # number of overall MSHR miss cycles
system.l2.CleanEvict_mshr_miss_rate::writebacks          inf                       # mshr miss rate for CleanEvict accesses
system.l2.CleanEvict_mshr_miss_rate::total          inf                       # mshr miss rate for CleanEvict accesses
system.l2.ReadExReq_mshr_miss_rate::cpu.data     0.523647                       # mshr miss rate for ReadExReq accesses
system.l2.ReadExReq_mshr_miss_rate::total     0.523647                       # mshr miss rate for ReadExReq accesses
system.l2.ReadCleanReq_mshr_miss_rate::cpu.inst     0.998994                       # mshr miss rate for ReadCleanReq accesses
system.l2.ReadCleanReq_mshr_miss_rate::total     0.998994                       # mshr miss rate for ReadCleanReq accesses
system.l2.ReadSharedReq_mshr_miss_rate::cpu.data     0.303707                       # mshr miss rate for ReadSharedReq accesses
system.l2.ReadSharedReq_mshr_miss_rate::total     0.303707                       # mshr miss rate for ReadSharedReq accesses
system.l2.demand_mshr_miss_rate::cpu.inst     0.998994                       # mshr miss rate for demand accesses
system.l2.demand_mshr_miss_rate::cpu.data     0.367064                       # mshr miss rate for demand accesses
system.l2.demand_mshr_miss_rate::total       0.367371                       # mshr miss rate for demand accesses
system.l2.overall_mshr_miss_rate::cpu.inst     0.998994                       # mshr miss rate for overall accesses
system.l2.overall_mshr_miss_rate::cpu.data     0.367064                       # mshr miss rate for overall accesses
system.l2.overall_mshr_miss_rate::total      0.367371                       # mshr miss rate for overall accesses
system.l2.ReadExReq_avg_mshr_miss_latency::cpu.data 75283.068543                       # average ReadExReq mshr miss latency
system.l2.ReadExReq_avg_mshr_miss_latency::total 75283.068543                       # average ReadExReq mshr miss latency
system.l2.ReadCleanReq_avg_mshr_miss_latency::cpu.inst 66280.463243                       # average ReadCleanReq mshr miss latency
system.l2.ReadCleanReq_avg_mshr_miss_latency::total 66280.463243                       # average ReadCleanReq mshr miss latency
system.l2.ReadSharedReq_avg_mshr_miss_latency::cpu.data 71907.055625                       # average ReadSharedReq mshr miss latency
system.l2.ReadSharedReq_avg_mshr_miss_latency::total 71907.055625                       # average ReadSharedReq mshr miss latency
system.l2.demand_avg_mshr_miss_latency::cpu.inst 66280.463243                       # average overall mshr miss latency
system.l2.demand_avg_mshr_miss_latency::cpu.data 73294.424303                       # average overall mshr miss latency
system.l2.demand_avg_mshr_miss_latency::total 73285.156354                       # average overall mshr miss latency
system.l2.overall_avg_mshr_miss_latency::cpu.inst 66280.463243                       # average overall mshr miss latency
system.l2.overall_avg_mshr_miss_latency::cpu.data 73294.424303                       # average overall mshr miss latency
system.l2.overall_avg_mshr_miss_latency::total 73285.156354                       # average overall mshr miss latency
system.l2.no_allocate_misses                        0                       # Number of misses that were no-allocate
system.membus.trans_dist::ReadResp             443080                       # Transaction distribution
system.membus.trans_dist::WritebackDirty       388777                       # Transaction distribution
system.membus.trans_dist::CleanEvict           345383                       # Transaction distribution
system.membus.trans_dist::ReadExReq            308420                       # Transaction distribution
system.membus.trans_dist::ReadExResp           308420                       # Transaction distribution
system.membus.trans_dist::ReadSharedReq        443080                       # Transaction distribution
system.membus.pkt_count_system.l2.mem_side::system.mem_ctrls.port      2237160                       # Packet count per connected master and slave (bytes)
system.membus.pkt_count_system.l2.mem_side::total      2237160                       # Packet count per connected master and slave (bytes)
system.membus.pkt_count::total                2237160                       # Packet count per connected master and slave (bytes)
system.membus.pkt_size_system.l2.mem_side::system.mem_ctrls.port     72977728                       # Cumulative packet size per connected master and slave (bytes)
system.membus.pkt_size_system.l2.mem_side::total     72977728                       # Cumulative packet size per connected master and slave (bytes)
system.membus.pkt_size::total                72977728                       # Cumulative packet size per connected master and slave (bytes)
system.membus.snoops                                0                       # Total snoops (count)
system.membus.snoop_fanout::samples           1485660                       # Request fanout histogram
system.membus.snoop_fanout::mean                    0                       # Request fanout histogram
system.membus.snoop_fanout::stdev                   0                       # Request fanout histogram
system.membus.snoop_fanout::underflows              0      0.00%      0.00% # Request fanout histogram
system.membus.snoop_fanout::0                 1485660    100.00%    100.00% # Request fanout histogram
system.membus.snoop_fanout::1                       0      0.00%    100.00% # Request fanout histogram
system.membus.snoop_fanout::overflows               0      0.00%    100.00% # Request fanout histogram
system.membus.snoop_fanout::min_value               0                       # Request fanout histogram
system.membus.snoop_fanout::max_value               0                       # Request fanout histogram
system.membus.snoop_fanout::total             1485660                       # Request fanout histogram
system.membus.reqLayer2.occupancy          3048734000                       # Layer occupancy (ticks)
system.membus.reqLayer2.utilization               0.3                       # Layer utilization (%)
system.membus.respLayer1.occupancy         4065962000                       # Layer occupancy (ticks)
system.membus.respLayer1.utilization              0.4                       # Layer utilization (%)
system.tol2bus.snoop_filter.tot_requests      4088192                       # Total number of requests made to the snoop filter.
system.tol2bus.snoop_filter.hit_single_requests      2042575                       # Number of requests hitting in the snoop filter with a single holder of the requested data.
system.tol2bus.snoop_filter.hit_multi_requests            1                       # Number of requests hitting in the snoop filter with multiple (>1) holders of the requested data.
system.tol2bus.snoop_filter.tot_snoops          91175                       # Total number of snoops made to the snoop filter.
system.tol2bus.snoop_filter.hit_single_snoops        91175                       # Number of snoops hitting in the snoop filter with a single holder of the requested data.
system.tol2bus.snoop_filter.hit_multi_snoops            0                       # Number of snoops hitting in the snoop filter with multiple (>1) holders of the requested data.
system.tol2bus.trans_dist::ReadResp           1456632                       # Transaction distribution
system.tol2bus.trans_dist::WritebackDirty      1337019                       # Transaction distribution
system.tol2bus.trans_dist::CleanEvict         1462799                       # Transaction distribution
system.tol2bus.trans_dist::ReadExReq           588985                       # Transaction distribution
system.tol2bus.trans_dist::ReadExResp          588985                       # Transaction distribution
system.tol2bus.trans_dist::ReadCleanReq           994                       # Transaction distribution
system.tol2bus.trans_dist::ReadSharedReq      1455638                       # Transaction distribution
system.tol2bus.pkt_count_system.cpu.icache.mem_side::system.l2.cpu_side         1988                       # Packet count per connected master and slave (bytes)
system.tol2bus.pkt_count_system.cpu.dcache.mem_side::system.l2.cpu_side      6131820                       # Packet count per connected master and slave (bytes)
system.tol2bus.pkt_count::total               6133808                       # Packet count per connected master and slave (bytes)
system.tol2bus.pkt_size_system.cpu.icache.mem_side::system.l2.cpu_side        63616                       # Cumulative packet size per connected master and slave (bytes)
system.tol2bus.pkt_size_system.cpu.dcache.mem_side::system.l2.cpu_side    191543360                       # Cumulative packet size per connected master and slave (bytes)
system.tol2bus.pkt_size::total              191606976                       # Cumulative packet size per connected master and slave (bytes)
system.tol2bus.snoops                          757244                       # Total snoops (count)
system.tol2bus.snoop_fanout::samples          2802861                       # Request fanout histogram
system.tol2bus.snoop_fanout::mean            0.032530                       # Request fanout histogram
system.tol2bus.snoop_fanout::stdev           0.177402                       # Request fanout histogram
system.tol2bus.snoop_fanout::underflows             0      0.00%      0.00% # Request fanout histogram
system.tol2bus.snoop_fanout::0                2711685     96.75%     96.75% # Request fanout histogram
system.tol2bus.snoop_fanout::1                  91176      3.25%    100.00% # Request fanout histogram
system.tol2bus.snoop_fanout::2                      0      0.00%    100.00% # Request fanout histogram
system.tol2bus.snoop_fanout::3                      0      0.00%    100.00% # Request fanout histogram
system.tol2bus.snoop_fanout::4                      0      0.00%    100.00% # Request fanout histogram
system.tol2bus.snoop_fanout::overflows              0      0.00%    100.00% # Request fanout histogram
system.tol2bus.snoop_fanout::min_value              0                       # Request fanout histogram
system.tol2bus.snoop_fanout::max_value              1                       # Request fanout histogram
system.tol2bus.snoop_fanout::total            2802861                       # Request fanout histogram
system.tol2bus.reqLayer0.occupancy         2992338000                       # Layer occupancy (ticks)
system.tol2bus.reqLayer0.utilization              0.3                       # Layer utilization (%)
system.tol2bus.respLayer0.occupancy           1491000                       # Layer occupancy (ticks)
system.tol2bus.respLayer0.utilization             0.0                       # Layer utilization (%)
system.tol2bus.respLayer1.occupancy        3066934500                       # Layer occupancy (ticks)
system.tol2bus.respLayer1.utilization             0.3                       # Layer utilization (%)

---------- End Simulation Statistics   ----------
