
---------- Begin Simulation Statistics ----------
sim_seconds                                  1.625240                       # Number of seconds simulated
sim_ticks                                1625240163500                       # Number of ticks simulated
final_tick                               1625240163500                       # Number of ticks from beginning of simulation (restored from checkpoints and never reset)
sim_freq                                 1000000000000                       # Frequency of simulated ticks
host_inst_rate                                  34550                       # Simulator instruction rate (inst/s)
host_op_rate                                    60553                       # Simulator op (including micro ops) rate (op/s)
host_tick_rate                              112303186                       # Simulator tick rate (ticks/s)
host_mem_usage                                 826532                       # Number of bytes of host memory used
host_seconds                                 14471.90                       # Real time elapsed on the host
sim_insts                                   500000000                       # Number of instructions simulated
sim_ops                                     876313787                       # Number of ops (including micro ops) simulated
system.voltage_domain.voltage                       1                       # Voltage in Volts
system.clk_domain.clock                          1000                       # Clock period in ticks
system.mem_ctrls.bytes_read::cpu.inst           43264                       # Number of bytes read from this memory
system.mem_ctrls.bytes_read::cpu.data       419292864                       # Number of bytes read from this memory
system.mem_ctrls.bytes_read::total          419336128                       # Number of bytes read from this memory
system.mem_ctrls.bytes_inst_read::cpu.inst        43264                       # Number of instructions bytes read from this memory
system.mem_ctrls.bytes_inst_read::total         43264                       # Number of instructions bytes read from this memory
system.mem_ctrls.bytes_written::writebacks     71362880                       # Number of bytes written to this memory
system.mem_ctrls.bytes_written::total        71362880                       # Number of bytes written to this memory
system.mem_ctrls.num_reads::cpu.inst              676                       # Number of read requests responded to by this memory
system.mem_ctrls.num_reads::cpu.data          6551451                       # Number of read requests responded to by this memory
system.mem_ctrls.num_reads::total             6552127                       # Number of read requests responded to by this memory
system.mem_ctrls.num_writes::writebacks       1115045                       # Number of write requests responded to by this memory
system.mem_ctrls.num_writes::total            1115045                       # Number of write requests responded to by this memory
system.mem_ctrls.bw_read::cpu.inst              26620                       # Total read bandwidth from this memory (bytes/s)
system.mem_ctrls.bw_read::cpu.data          257988249                       # Total read bandwidth from this memory (bytes/s)
system.mem_ctrls.bw_read::total             258014869                       # Total read bandwidth from this memory (bytes/s)
system.mem_ctrls.bw_inst_read::cpu.inst         26620                       # Instruction read bandwidth from this memory (bytes/s)
system.mem_ctrls.bw_inst_read::total            26620                       # Instruction read bandwidth from this memory (bytes/s)
system.mem_ctrls.bw_write::writebacks        43909129                       # Write bandwidth from this memory (bytes/s)
system.mem_ctrls.bw_write::total             43909129                       # Write bandwidth from this memory (bytes/s)
system.mem_ctrls.bw_total::writebacks        43909129                       # Total bandwidth to/from this memory (bytes/s)
system.mem_ctrls.bw_total::cpu.inst             26620                       # Total bandwidth to/from this memory (bytes/s)
system.mem_ctrls.bw_total::cpu.data         257988249                       # Total bandwidth to/from this memory (bytes/s)
system.mem_ctrls.bw_total::total            301923998                       # Total bandwidth to/from this memory (bytes/s)
system.mem_ctrls.readReqs                     6552127                       # Number of read requests accepted
system.mem_ctrls.writeReqs                    1115045                       # Number of write requests accepted
system.mem_ctrls.readBursts                   6552127                       # Number of DRAM read bursts, including those serviced by the write queue
system.mem_ctrls.writeBursts                  1115045                       # Number of DRAM write bursts, including those merged in the write queue
system.mem_ctrls.bytesReadDRAM              418564160                       # Total number of bytes read from DRAM
system.mem_ctrls.bytesReadWrQ                  771968                       # Total number of bytes read from write queue
system.mem_ctrls.bytesWritten                71358528                       # Total number of bytes written to DRAM
system.mem_ctrls.bytesReadSys               419336128                       # Total read bytes from the system interface side
system.mem_ctrls.bytesWrittenSys             71362880                       # Total written bytes from the system interface side
system.mem_ctrls.servicedByWrQ                  12062                       # Number of DRAM read bursts serviced by the write queue
system.mem_ctrls.mergedWrBursts                    42                       # Number of DRAM write bursts merged with an existing one
system.mem_ctrls.neitherReadNorWriteReqs      5420000                       # Number of requests that are neither read nor write
system.mem_ctrls.perBankRdBursts::0            421259                       # Per bank write bursts
system.mem_ctrls.perBankRdBursts::1            402171                       # Per bank write bursts
system.mem_ctrls.perBankRdBursts::2            404606                       # Per bank write bursts
system.mem_ctrls.perBankRdBursts::3            424856                       # Per bank write bursts
system.mem_ctrls.perBankRdBursts::4            397760                       # Per bank write bursts
system.mem_ctrls.perBankRdBursts::5            399784                       # Per bank write bursts
system.mem_ctrls.perBankRdBursts::6            409472                       # Per bank write bursts
system.mem_ctrls.perBankRdBursts::7            397556                       # Per bank write bursts
system.mem_ctrls.perBankRdBursts::8            401610                       # Per bank write bursts
system.mem_ctrls.perBankRdBursts::9            400357                       # Per bank write bursts
system.mem_ctrls.perBankRdBursts::10           401992                       # Per bank write bursts
system.mem_ctrls.perBankRdBursts::11           407105                       # Per bank write bursts
system.mem_ctrls.perBankRdBursts::12           417927                       # Per bank write bursts
system.mem_ctrls.perBankRdBursts::13           421084                       # Per bank write bursts
system.mem_ctrls.perBankRdBursts::14           414854                       # Per bank write bursts
system.mem_ctrls.perBankRdBursts::15           417672                       # Per bank write bursts
system.mem_ctrls.perBankWrBursts::0             71849                       # Per bank write bursts
system.mem_ctrls.perBankWrBursts::1             71025                       # Per bank write bursts
system.mem_ctrls.perBankWrBursts::2             71283                       # Per bank write bursts
system.mem_ctrls.perBankWrBursts::3             75525                       # Per bank write bursts
system.mem_ctrls.perBankWrBursts::4             68940                       # Per bank write bursts
system.mem_ctrls.perBankWrBursts::5             66279                       # Per bank write bursts
system.mem_ctrls.perBankWrBursts::6             69190                       # Per bank write bursts
system.mem_ctrls.perBankWrBursts::7             65842                       # Per bank write bursts
system.mem_ctrls.perBankWrBursts::8             66993                       # Per bank write bursts
system.mem_ctrls.perBankWrBursts::9             65595                       # Per bank write bursts
system.mem_ctrls.perBankWrBursts::10            66003                       # Per bank write bursts
system.mem_ctrls.perBankWrBursts::11            69651                       # Per bank write bursts
system.mem_ctrls.perBankWrBursts::12            71877                       # Per bank write bursts
system.mem_ctrls.perBankWrBursts::13            71958                       # Per bank write bursts
system.mem_ctrls.perBankWrBursts::14            71424                       # Per bank write bursts
system.mem_ctrls.perBankWrBursts::15            71543                       # Per bank write bursts
system.mem_ctrls.numRdRetry                         0                       # Number of times read queue was full causing retry
system.mem_ctrls.numWrRetry                         0                       # Number of times write queue was full causing retry
system.mem_ctrls.totGap                  1625223775500                       # Total gap between requests
system.mem_ctrls.readPktSize::0                     0                       # Read request sizes (log2)
system.mem_ctrls.readPktSize::1                     0                       # Read request sizes (log2)
system.mem_ctrls.readPktSize::2                     0                       # Read request sizes (log2)
system.mem_ctrls.readPktSize::3                     0                       # Read request sizes (log2)
system.mem_ctrls.readPktSize::4                     0                       # Read request sizes (log2)
system.mem_ctrls.readPktSize::5                     0                       # Read request sizes (log2)
system.mem_ctrls.readPktSize::6               6552127                       # Read request sizes (log2)
system.mem_ctrls.writePktSize::0                    0                       # Write request sizes (log2)
system.mem_ctrls.writePktSize::1                    0                       # Write request sizes (log2)
system.mem_ctrls.writePktSize::2                    0                       # Write request sizes (log2)
system.mem_ctrls.writePktSize::3                    0                       # Write request sizes (log2)
system.mem_ctrls.writePktSize::4                    0                       # Write request sizes (log2)
system.mem_ctrls.writePktSize::5                    0                       # Write request sizes (log2)
system.mem_ctrls.writePktSize::6              1115045                       # Write request sizes (log2)
system.mem_ctrls.rdQLenPdf::0                 6540065                       # What read queue length does an incoming req see
system.mem_ctrls.rdQLenPdf::1                       0                       # What read queue length does an incoming req see
system.mem_ctrls.rdQLenPdf::2                       0                       # What read queue length does an incoming req see
system.mem_ctrls.rdQLenPdf::3                       0                       # What read queue length does an incoming req see
system.mem_ctrls.rdQLenPdf::4                       0                       # What read queue length does an incoming req see
system.mem_ctrls.rdQLenPdf::5                       0                       # What read queue length does an incoming req see
system.mem_ctrls.rdQLenPdf::6                       0                       # What read queue length does an incoming req see
system.mem_ctrls.rdQLenPdf::7                       0                       # What read queue length does an incoming req see
system.mem_ctrls.rdQLenPdf::8                       0                       # What read queue length does an incoming req see
system.mem_ctrls.rdQLenPdf::9                       0                       # What read queue length does an incoming req see
system.mem_ctrls.rdQLenPdf::10                      0                       # What read queue length does an incoming req see
system.mem_ctrls.rdQLenPdf::11                      0                       # What read queue length does an incoming req see
system.mem_ctrls.rdQLenPdf::12                      0                       # What read queue length does an incoming req see
system.mem_ctrls.rdQLenPdf::13                      0                       # What read queue length does an incoming req see
system.mem_ctrls.rdQLenPdf::14                      0                       # What read queue length does an incoming req see
system.mem_ctrls.rdQLenPdf::15                      0                       # What read queue length does an incoming req see
system.mem_ctrls.rdQLenPdf::16                      0                       # What read queue length does an incoming req see
system.mem_ctrls.rdQLenPdf::17                      0                       # What read queue length does an incoming req see
system.mem_ctrls.rdQLenPdf::18                      0                       # What read queue length does an incoming req see
system.mem_ctrls.rdQLenPdf::19                      0                       # What read queue length does an incoming req see
system.mem_ctrls.rdQLenPdf::20                      0                       # What read queue length does an incoming req see
system.mem_ctrls.rdQLenPdf::21                      0                       # What read queue length does an incoming req see
system.mem_ctrls.rdQLenPdf::22                      0                       # What read queue length does an incoming req see
system.mem_ctrls.rdQLenPdf::23                      0                       # What read queue length does an incoming req see
system.mem_ctrls.rdQLenPdf::24                      0                       # What read queue length does an incoming req see
system.mem_ctrls.rdQLenPdf::25                      0                       # What read queue length does an incoming req see
system.mem_ctrls.rdQLenPdf::26                      0                       # What read queue length does an incoming req see
system.mem_ctrls.rdQLenPdf::27                      0                       # What read queue length does an incoming req see
system.mem_ctrls.rdQLenPdf::28                      0                       # What read queue length does an incoming req see
system.mem_ctrls.rdQLenPdf::29                      0                       # What read queue length does an incoming req see
system.mem_ctrls.rdQLenPdf::30                      0                       # What read queue length does an incoming req see
system.mem_ctrls.rdQLenPdf::31                      0                       # What read queue length does an incoming req see
system.mem_ctrls.wrQLenPdf::0                       1                       # What write queue length does an incoming req see
system.mem_ctrls.wrQLenPdf::1                       1                       # What write queue length does an incoming req see
system.mem_ctrls.wrQLenPdf::2                       1                       # What write queue length does an incoming req see
system.mem_ctrls.wrQLenPdf::3                       1                       # What write queue length does an incoming req see
system.mem_ctrls.wrQLenPdf::4                       1                       # What write queue length does an incoming req see
system.mem_ctrls.wrQLenPdf::5                       1                       # What write queue length does an incoming req see
system.mem_ctrls.wrQLenPdf::6                       1                       # What write queue length does an incoming req see
system.mem_ctrls.wrQLenPdf::7                       1                       # What write queue length does an incoming req see
system.mem_ctrls.wrQLenPdf::8                       1                       # What write queue length does an incoming req see
system.mem_ctrls.wrQLenPdf::9                       1                       # What write queue length does an incoming req see
system.mem_ctrls.wrQLenPdf::10                      1                       # What write queue length does an incoming req see
system.mem_ctrls.wrQLenPdf::11                      1                       # What write queue length does an incoming req see
system.mem_ctrls.wrQLenPdf::12                      1                       # What write queue length does an incoming req see
system.mem_ctrls.wrQLenPdf::13                      1                       # What write queue length does an incoming req see
system.mem_ctrls.wrQLenPdf::14                      1                       # What write queue length does an incoming req see
system.mem_ctrls.wrQLenPdf::15                  33110                       # What write queue length does an incoming req see
system.mem_ctrls.wrQLenPdf::16                  34559                       # What write queue length does an incoming req see
system.mem_ctrls.wrQLenPdf::17                  65307                       # What write queue length does an incoming req see
system.mem_ctrls.wrQLenPdf::18                  65469                       # What write queue length does an incoming req see
system.mem_ctrls.wrQLenPdf::19                  65448                       # What write queue length does an incoming req see
system.mem_ctrls.wrQLenPdf::20                  65465                       # What write queue length does an incoming req see
system.mem_ctrls.wrQLenPdf::21                  65435                       # What write queue length does an incoming req see
system.mem_ctrls.wrQLenPdf::22                  65443                       # What write queue length does an incoming req see
system.mem_ctrls.wrQLenPdf::23                  65437                       # What write queue length does an incoming req see
system.mem_ctrls.wrQLenPdf::24                  65438                       # What write queue length does an incoming req see
system.mem_ctrls.wrQLenPdf::25                  65460                       # What write queue length does an incoming req see
system.mem_ctrls.wrQLenPdf::26                  65446                       # What write queue length does an incoming req see
system.mem_ctrls.wrQLenPdf::27                  65520                       # What write queue length does an incoming req see
system.mem_ctrls.wrQLenPdf::28                  65578                       # What write queue length does an incoming req see
system.mem_ctrls.wrQLenPdf::29                  65481                       # What write queue length does an incoming req see
system.mem_ctrls.wrQLenPdf::30                  65535                       # What write queue length does an incoming req see
system.mem_ctrls.wrQLenPdf::31                  65428                       # What write queue length does an incoming req see
system.mem_ctrls.wrQLenPdf::32                  65423                       # What write queue length does an incoming req see
system.mem_ctrls.wrQLenPdf::33                      6                       # What write queue length does an incoming req see
system.mem_ctrls.wrQLenPdf::34                      0                       # What write queue length does an incoming req see
system.mem_ctrls.wrQLenPdf::35                      0                       # What write queue length does an incoming req see
system.mem_ctrls.wrQLenPdf::36                      0                       # What write queue length does an incoming req see
system.mem_ctrls.wrQLenPdf::37                      0                       # What write queue length does an incoming req see
system.mem_ctrls.wrQLenPdf::38                      0                       # What write queue length does an incoming req see
system.mem_ctrls.wrQLenPdf::39                      0                       # What write queue length does an incoming req see
system.mem_ctrls.wrQLenPdf::40                      0                       # What write queue length does an incoming req see
system.mem_ctrls.wrQLenPdf::41                      0                       # What write queue length does an incoming req see
system.mem_ctrls.wrQLenPdf::42                      0                       # What write queue length does an incoming req see
system.mem_ctrls.wrQLenPdf::43                      0                       # What write queue length does an incoming req see
system.mem_ctrls.wrQLenPdf::44                      0                       # What write queue length does an incoming req see
system.mem_ctrls.wrQLenPdf::45                      0                       # What write queue length does an incoming req see
system.mem_ctrls.wrQLenPdf::46                      0                       # What write queue length does an incoming req see
system.mem_ctrls.wrQLenPdf::47                      0                       # What write queue length does an incoming req see
system.mem_ctrls.wrQLenPdf::48                      0                       # What write queue length does an incoming req see
system.mem_ctrls.wrQLenPdf::49                      0                       # What write queue length does an incoming req see
system.mem_ctrls.wrQLenPdf::50                      0                       # What write queue length does an incoming req see
system.mem_ctrls.wrQLenPdf::51                      0                       # What write queue length does an incoming req see
system.mem_ctrls.wrQLenPdf::52                      0                       # What write queue length does an incoming req see
system.mem_ctrls.wrQLenPdf::53                      0                       # What write queue length does an incoming req see
system.mem_ctrls.wrQLenPdf::54                      0                       # What write queue length does an incoming req see
system.mem_ctrls.wrQLenPdf::55                      0                       # What write queue length does an incoming req see
system.mem_ctrls.wrQLenPdf::56                      0                       # What write queue length does an incoming req see
system.mem_ctrls.wrQLenPdf::57                      0                       # What write queue length does an incoming req see
system.mem_ctrls.wrQLenPdf::58                      0                       # What write queue length does an incoming req see
system.mem_ctrls.wrQLenPdf::59                      0                       # What write queue length does an incoming req see
system.mem_ctrls.wrQLenPdf::60                      0                       # What write queue length does an incoming req see
system.mem_ctrls.wrQLenPdf::61                      0                       # What write queue length does an incoming req see
system.mem_ctrls.wrQLenPdf::62                      0                       # What write queue length does an incoming req see
system.mem_ctrls.wrQLenPdf::63                      0                       # What write queue length does an incoming req see
system.mem_ctrls.bytesPerActivate::samples      5823059                       # Bytes accessed per row activation
system.mem_ctrls.bytesPerActivate::mean     84.134935                       # Bytes accessed per row activation
system.mem_ctrls.bytesPerActivate::gmean    71.018275                       # Bytes accessed per row activation
system.mem_ctrls.bytesPerActivate::stdev   109.597954                       # Bytes accessed per row activation
system.mem_ctrls.bytesPerActivate::0-127      5299798     91.01%     91.01% # Bytes accessed per row activation
system.mem_ctrls.bytesPerActivate::128-255       383341      6.58%     97.60% # Bytes accessed per row activation
system.mem_ctrls.bytesPerActivate::256-383        31331      0.54%     98.14% # Bytes accessed per row activation
system.mem_ctrls.bytesPerActivate::384-511        15263      0.26%     98.40% # Bytes accessed per row activation
system.mem_ctrls.bytesPerActivate::512-639        10724      0.18%     98.58% # Bytes accessed per row activation
system.mem_ctrls.bytesPerActivate::640-767        10416      0.18%     98.76% # Bytes accessed per row activation
system.mem_ctrls.bytesPerActivate::768-895        12031      0.21%     98.97% # Bytes accessed per row activation
system.mem_ctrls.bytesPerActivate::896-1023         8369      0.14%     99.11% # Bytes accessed per row activation
system.mem_ctrls.bytesPerActivate::1024-1151        51786      0.89%    100.00% # Bytes accessed per row activation
system.mem_ctrls.bytesPerActivate::total      5823059                       # Bytes accessed per row activation
system.mem_ctrls.rdPerTurnAround::samples        65423                       # Reads before turning the bus around for writes
system.mem_ctrls.rdPerTurnAround::mean      99.965440                       # Reads before turning the bus around for writes
system.mem_ctrls.rdPerTurnAround::gmean     56.394013                       # Reads before turning the bus around for writes
system.mem_ctrls.rdPerTurnAround::stdev    146.015200                       # Reads before turning the bus around for writes
system.mem_ctrls.rdPerTurnAround::0-255         57667     88.14%     88.14% # Reads before turning the bus around for writes
system.mem_ctrls.rdPerTurnAround::256-511         6952     10.63%     98.77% # Reads before turning the bus around for writes
system.mem_ctrls.rdPerTurnAround::512-767          443      0.68%     99.45% # Reads before turning the bus around for writes
system.mem_ctrls.rdPerTurnAround::768-1023          173      0.26%     99.71% # Reads before turning the bus around for writes
system.mem_ctrls.rdPerTurnAround::1024-1279           80      0.12%     99.83% # Reads before turning the bus around for writes
system.mem_ctrls.rdPerTurnAround::1280-1535           42      0.06%     99.90% # Reads before turning the bus around for writes
system.mem_ctrls.rdPerTurnAround::1536-1791           23      0.04%     99.93% # Reads before turning the bus around for writes
system.mem_ctrls.rdPerTurnAround::1792-2047           16      0.02%     99.96% # Reads before turning the bus around for writes
system.mem_ctrls.rdPerTurnAround::2048-2303            8      0.01%     99.97% # Reads before turning the bus around for writes
system.mem_ctrls.rdPerTurnAround::2304-2559            6      0.01%     99.98% # Reads before turning the bus around for writes
system.mem_ctrls.rdPerTurnAround::2560-2815            5      0.01%     99.99% # Reads before turning the bus around for writes
system.mem_ctrls.rdPerTurnAround::2816-3071            2      0.00%     99.99% # Reads before turning the bus around for writes
system.mem_ctrls.rdPerTurnAround::3072-3327            1      0.00%     99.99% # Reads before turning the bus around for writes
system.mem_ctrls.rdPerTurnAround::3328-3583            1      0.00%     99.99% # Reads before turning the bus around for writes
system.mem_ctrls.rdPerTurnAround::3584-3839            2      0.00%    100.00% # Reads before turning the bus around for writes
system.mem_ctrls.rdPerTurnAround::4352-4607            2      0.00%    100.00% # Reads before turning the bus around for writes
system.mem_ctrls.rdPerTurnAround::total         65423                       # Reads before turning the bus around for writes
system.mem_ctrls.wrPerTurnAround::samples        65423                       # Writes before turning the bus around for reads
system.mem_ctrls.wrPerTurnAround::mean      17.042584                       # Writes before turning the bus around for reads
system.mem_ctrls.wrPerTurnAround::gmean     17.013236                       # Writes before turning the bus around for reads
system.mem_ctrls.wrPerTurnAround::stdev      0.998848                       # Writes before turning the bus around for reads
system.mem_ctrls.wrPerTurnAround::16            30843     47.14%     47.14% # Writes before turning the bus around for reads
system.mem_ctrls.wrPerTurnAround::17             1400      2.14%     49.28% # Writes before turning the bus around for reads
system.mem_ctrls.wrPerTurnAround::18            32741     50.05%     99.33% # Writes before turning the bus around for reads
system.mem_ctrls.wrPerTurnAround::19              429      0.66%     99.98% # Writes before turning the bus around for reads
system.mem_ctrls.wrPerTurnAround::20               10      0.02%    100.00% # Writes before turning the bus around for reads
system.mem_ctrls.wrPerTurnAround::total         65423                       # Writes before turning the bus around for reads
system.mem_ctrls.totQLat                 149589374000                       # Total ticks spent queuing
system.mem_ctrls.totMemAccLat            272215592750                       # Total ticks spent from burst creation until serviced by the DRAM
system.mem_ctrls.totBusLat                32700325000                       # Total ticks spent in databus transfers
system.mem_ctrls.avgQLat                     22872.77                       # Average queueing delay per DRAM burst
system.mem_ctrls.avgBusLat                    5000.00                       # Average bus latency per DRAM burst
system.mem_ctrls.avgMemAccLat                41622.77                       # Average memory access latency per DRAM burst
system.mem_ctrls.avgRdBW                       257.54                       # Average DRAM read bandwidth in MiByte/s
system.mem_ctrls.avgWrBW                        43.91                       # Average achieved write bandwidth in MiByte/s
system.mem_ctrls.avgRdBWSys                    258.01                       # Average system read bandwidth in MiByte/s
system.mem_ctrls.avgWrBWSys                     43.91                       # Average system write bandwidth in MiByte/s
system.mem_ctrls.peakBW                      12800.00                       # Theoretical peak bandwidth in MiByte/s
system.mem_ctrls.busUtil                         2.36                       # Data bus utilization in percentage
system.mem_ctrls.busUtilRead                     2.01                       # Data bus utilization in percentage for reads
system.mem_ctrls.busUtilWrite                    0.34                       # Data bus utilization in percentage for writes
system.mem_ctrls.avgRdQLen                       1.00                       # Average read queue length when enqueuing
system.mem_ctrls.avgWrQLen                      24.84                       # Average write queue length when enqueuing
system.mem_ctrls.readRowHits                  1334323                       # Number of row buffer hits during reads
system.mem_ctrls.writeRowHits                  497660                       # Number of row buffer hits during writes
system.mem_ctrls.readRowHitRate                 20.40                       # Row buffer hit rate for reads
system.mem_ctrls.writeRowHitRate                44.63                       # Row buffer hit rate for writes
system.mem_ctrls.avgGap                     211971.74                       # Average gap between requests
system.mem_ctrls.pageHitRate                    23.93                       # Row buffer hit rate, read and write combined
system.mem_ctrls_0.actEnergy              21945621600                       # Energy for activate commands per rank (pJ)
system.mem_ctrls_0.preEnergy              11974297500                       # Energy for precharge commands per rank (pJ)
system.mem_ctrls_0.readEnergy             25408219200                       # Energy for read commands per rank (pJ)
system.mem_ctrls_0.writeEnergy             3628365840                       # Energy for write commands per rank (pJ)
system.mem_ctrls_0.refreshEnergy         106152745920                       # Energy for refresh commands per rank (pJ)
system.mem_ctrls_0.actBackEnergy         845474757930                       # Energy for active background per rank (pJ)
system.mem_ctrls_0.preBackEnergy         233499344250                       # Energy for precharge background per rank (pJ)
system.mem_ctrls_0.totalEnergy           1248083352240                       # Total energy per rank (pJ)
system.mem_ctrls_0.averagePower            767.937979                       # Core power per rank (mW)
system.mem_ctrls_0.memoryStateTime::IDLE 383329888000                       # Time in different power states
system.mem_ctrls_0.memoryStateTime::REF   54270320000                       # Time in different power states
system.mem_ctrls_0.memoryStateTime::PRE_PDN            0                       # Time in different power states
system.mem_ctrls_0.memoryStateTime::ACT  1187639587000                       # Time in different power states
system.mem_ctrls_0.memoryStateTime::ACT_PDN            0                       # Time in different power states
system.mem_ctrls_1.actEnergy              22076704440                       # Energy for activate commands per rank (pJ)
system.mem_ctrls_1.preEnergy              12045820875                       # Energy for precharge commands per rank (pJ)
system.mem_ctrls_1.readEnergy             25604287800                       # Energy for read commands per rank (pJ)
system.mem_ctrls_1.writeEnergy             3596685120                       # Energy for write commands per rank (pJ)
system.mem_ctrls_1.refreshEnergy         106152745920                       # Energy for refresh commands per rank (pJ)
system.mem_ctrls_1.actBackEnergy         844634177505                       # Energy for active background per rank (pJ)
system.mem_ctrls_1.preBackEnergy         234236695500                       # Energy for precharge background per rank (pJ)
system.mem_ctrls_1.totalEnergy           1248347117160                       # Total energy per rank (pJ)
system.mem_ctrls_1.averagePower            768.100271                       # Core power per rank (mW)
system.mem_ctrls_1.memoryStateTime::IDLE 384216677250                       # Time in different power states
system.mem_ctrls_1.memoryStateTime::REF   54270320000                       # Time in different power states
system.mem_ctrls_1.memoryStateTime::PRE_PDN            0                       # Time in different power states
system.mem_ctrls_1.memoryStateTime::ACT  1186752797750                       # Time in different power states
system.mem_ctrls_1.memoryStateTime::ACT_PDN            0                       # Time in different power states
system.cpu_voltage_domain.voltage                   1                       # Voltage in Volts
system.cpu_clk_domain.clock                       500                       # Clock period in ticks
system.cpu.apic_clk_domain.clock                 8000                       # Clock period in ticks
system.cpu.workload.num_syscalls                  168                       # Number of system calls
system.cpu.numCycles                       3250480327                       # number of cpu cycles simulated
system.cpu.numWorkItemsStarted                      0                       # number of work items this cpu started
system.cpu.numWorkItemsCompleted                    0                       # number of work items this cpu completed
system.cpu.committedInsts                   500000000                       # Number of instructions committed
system.cpu.committedOps                     876313787                       # Number of ops (including micro ops) committed
system.cpu.num_int_alu_accesses             872966684                       # Number of integer alu accesses
system.cpu.num_fp_alu_accesses                2882231                       # Number of float alu accesses
system.cpu.num_func_calls                    11025254                       # number of times a function call or return occured
system.cpu.num_conditional_control_insts     75981010                       # number of instructions that are conditional controls
system.cpu.num_int_insts                    872966684                       # number of integer instructions
system.cpu.num_fp_insts                       2882231                       # number of float instructions
system.cpu.num_int_register_reads          1835046968                       # number of times the integer registers were read
system.cpu.num_int_register_writes          703076421                       # number of times the integer registers were written
system.cpu.num_fp_register_reads              4386063                       # number of times the floating registers were read
system.cpu.num_fp_register_writes             2464405                       # number of times the floating registers were written
system.cpu.num_cc_register_reads            441654672                       # number of times the CC registers were read
system.cpu.num_cc_register_writes           253505512                       # number of times the CC registers were written
system.cpu.num_mem_refs                     293763601                       # number of memory refs
system.cpu.num_load_insts                   221285044                       # Number of load instructions
system.cpu.num_store_insts                   72478557                       # Number of store instructions
system.cpu.num_idle_cycles                          0                       # Number of idle cycles
system.cpu.num_busy_cycles                 3250480327                       # Number of busy cycles
system.cpu.not_idle_fraction                        1                       # Percentage of non-idle cycles
system.cpu.idle_fraction                            0                       # Percentage of idle cycles
system.cpu.Branches                          97901002                       # Number of branches fetched
system.cpu.op_class::No_OpClass                939429      0.11%      0.11% # Class of executed instruction
system.cpu.op_class::IntAlu                 578420256     66.01%     66.11% # Class of executed instruction
system.cpu.op_class::IntMult                   907073      0.10%     66.22% # Class of executed instruction
system.cpu.op_class::IntDiv                        42      0.00%     66.22% # Class of executed instruction
system.cpu.op_class::FloatAdd                 2283386      0.26%     66.48% # Class of executed instruction
system.cpu.op_class::FloatCmp                       0      0.00%     66.48% # Class of executed instruction
system.cpu.op_class::FloatCvt                       0      0.00%     66.48% # Class of executed instruction
system.cpu.op_class::FloatMult                      0      0.00%     66.48% # Class of executed instruction
system.cpu.op_class::FloatDiv                       0      0.00%     66.48% # Class of executed instruction
system.cpu.op_class::FloatSqrt                      0      0.00%     66.48% # Class of executed instruction
system.cpu.op_class::SimdAdd                        0      0.00%     66.48% # Class of executed instruction
system.cpu.op_class::SimdAddAcc                     0      0.00%     66.48% # Class of executed instruction
system.cpu.op_class::SimdAlu                        0      0.00%     66.48% # Class of executed instruction
system.cpu.op_class::SimdCmp                        0      0.00%     66.48% # Class of executed instruction
system.cpu.op_class::SimdCvt                        0      0.00%     66.48% # Class of executed instruction
system.cpu.op_class::SimdMisc                       0      0.00%     66.48% # Class of executed instruction
system.cpu.op_class::SimdMult                       0      0.00%     66.48% # Class of executed instruction
system.cpu.op_class::SimdMultAcc                    0      0.00%     66.48% # Class of executed instruction
system.cpu.op_class::SimdShift                      0      0.00%     66.48% # Class of executed instruction
system.cpu.op_class::SimdShiftAcc                   0      0.00%     66.48% # Class of executed instruction
system.cpu.op_class::SimdSqrt                       0      0.00%     66.48% # Class of executed instruction
system.cpu.op_class::SimdFloatAdd                   0      0.00%     66.48% # Class of executed instruction
system.cpu.op_class::SimdFloatAlu                   0      0.00%     66.48% # Class of executed instruction
system.cpu.op_class::SimdFloatCmp                   0      0.00%     66.48% # Class of executed instruction
system.cpu.op_class::SimdFloatCvt                   0      0.00%     66.48% # Class of executed instruction
system.cpu.op_class::SimdFloatDiv                   0      0.00%     66.48% # Class of executed instruction
system.cpu.op_class::SimdFloatMisc                  0      0.00%     66.48% # Class of executed instruction
system.cpu.op_class::SimdFloatMult                  0      0.00%     66.48% # Class of executed instruction
system.cpu.op_class::SimdFloatMultAcc               0      0.00%     66.48% # Class of executed instruction
system.cpu.op_class::SimdFloatSqrt                  0      0.00%     66.48% # Class of executed instruction
system.cpu.op_class::MemRead                221285044     25.25%     91.73% # Class of executed instruction
system.cpu.op_class::MemWrite                72478557      8.27%    100.00% # Class of executed instruction
system.cpu.op_class::IprAccess                      0      0.00%    100.00% # Class of executed instruction
system.cpu.op_class::InstPrefetch                   0      0.00%    100.00% # Class of executed instruction
system.cpu.op_class::total                  876313787                       # Class of executed instruction
system.cpu.dcache.tags.replacements          10223913                       # number of replacements
system.cpu.dcache.tags.tagsinuse          2047.307557                       # Cycle average of tags in use
system.cpu.dcache.tags.total_refs           283551768                       # Total number of references to valid blocks.
system.cpu.dcache.tags.sampled_refs          10225961                       # Sample count of references to valid blocks.
system.cpu.dcache.tags.avg_refs             27.728618                       # Average number of references to valid blocks.
system.cpu.dcache.tags.warmup_cycle        1262398500                       # Cycle when the warmup percentage was hit.
system.cpu.dcache.tags.occ_blocks::cpu.data  2047.307557                       # Average occupied blocks per requestor
system.cpu.dcache.tags.occ_percent::cpu.data     0.999662                       # Average percentage of cache occupancy
system.cpu.dcache.tags.occ_percent::total     0.999662                       # Average percentage of cache occupancy
system.cpu.dcache.tags.occ_task_id_blocks::1024         2048                       # Occupied blocks per task id
system.cpu.dcache.tags.age_task_id_blocks_1024::0            2                       # Occupied blocks per task id
system.cpu.dcache.tags.age_task_id_blocks_1024::1          605                       # Occupied blocks per task id
system.cpu.dcache.tags.age_task_id_blocks_1024::2         1249                       # Occupied blocks per task id
system.cpu.dcache.tags.age_task_id_blocks_1024::3          189                       # Occupied blocks per task id
system.cpu.dcache.tags.age_task_id_blocks_1024::4            3                       # Occupied blocks per task id
system.cpu.dcache.tags.occ_task_id_percent::1024            1                       # Percentage of cache occupancy per task id
system.cpu.dcache.tags.tag_accesses         597781419                       # Number of tag accesses
system.cpu.dcache.tags.data_accesses        597781419                       # Number of data accesses
system.cpu.dcache.ReadReq_hits::cpu.data    211414955                       # number of ReadReq hits
system.cpu.dcache.ReadReq_hits::total       211414955                       # number of ReadReq hits
system.cpu.dcache.WriteReq_hits::cpu.data     72136813                       # number of WriteReq hits
system.cpu.dcache.WriteReq_hits::total       72136813                       # number of WriteReq hits
system.cpu.dcache.demand_hits::cpu.data     283551768                       # number of demand (read+write) hits
system.cpu.dcache.demand_hits::total        283551768                       # number of demand (read+write) hits
system.cpu.dcache.overall_hits::cpu.data    283551768                       # number of overall hits
system.cpu.dcache.overall_hits::total       283551768                       # number of overall hits
system.cpu.dcache.ReadReq_misses::cpu.data      9884216                       # number of ReadReq misses
system.cpu.dcache.ReadReq_misses::total       9884216                       # number of ReadReq misses
system.cpu.dcache.WriteReq_misses::cpu.data       341745                       # number of WriteReq misses
system.cpu.dcache.WriteReq_misses::total       341745                       # number of WriteReq misses
system.cpu.dcache.demand_misses::cpu.data     10225961                       # number of demand (read+write) misses
system.cpu.dcache.demand_misses::total       10225961                       # number of demand (read+write) misses
system.cpu.dcache.overall_misses::cpu.data     10225961                       # number of overall misses
system.cpu.dcache.overall_misses::total      10225961                       # number of overall misses
system.cpu.dcache.ReadReq_miss_latency::cpu.data 645248861000                       # number of ReadReq miss cycles
system.cpu.dcache.ReadReq_miss_latency::total 645248861000                       # number of ReadReq miss cycles
system.cpu.dcache.WriteReq_miss_latency::cpu.data  19074490500                       # number of WriteReq miss cycles
system.cpu.dcache.WriteReq_miss_latency::total  19074490500                       # number of WriteReq miss cycles
system.cpu.dcache.demand_miss_latency::cpu.data 664323351500                       # number of demand (read+write) miss cycles
system.cpu.dcache.demand_miss_latency::total 664323351500                       # number of demand (read+write) miss cycles
system.cpu.dcache.overall_miss_latency::cpu.data 664323351500                       # number of overall miss cycles
system.cpu.dcache.overall_miss_latency::total 664323351500                       # number of overall miss cycles
system.cpu.dcache.ReadReq_accesses::cpu.data    221299171                       # number of ReadReq accesses(hits+misses)
system.cpu.dcache.ReadReq_accesses::total    221299171                       # number of ReadReq accesses(hits+misses)
system.cpu.dcache.WriteReq_accesses::cpu.data     72478558                       # number of WriteReq accesses(hits+misses)
system.cpu.dcache.WriteReq_accesses::total     72478558                       # number of WriteReq accesses(hits+misses)
system.cpu.dcache.demand_accesses::cpu.data    293777729                       # number of demand (read+write) accesses
system.cpu.dcache.demand_accesses::total    293777729                       # number of demand (read+write) accesses
system.cpu.dcache.overall_accesses::cpu.data    293777729                       # number of overall (read+write) accesses
system.cpu.dcache.overall_accesses::total    293777729                       # number of overall (read+write) accesses
system.cpu.dcache.ReadReq_miss_rate::cpu.data     0.044664                       # miss rate for ReadReq accesses
system.cpu.dcache.ReadReq_miss_rate::total     0.044664                       # miss rate for ReadReq accesses
system.cpu.dcache.WriteReq_miss_rate::cpu.data     0.004715                       # miss rate for WriteReq accesses
system.cpu.dcache.WriteReq_miss_rate::total     0.004715                       # miss rate for WriteReq accesses
system.cpu.dcache.demand_miss_rate::cpu.data     0.034808                       # miss rate for demand accesses
system.cpu.dcache.demand_miss_rate::total     0.034808                       # miss rate for demand accesses
system.cpu.dcache.overall_miss_rate::cpu.data     0.034808                       # miss rate for overall accesses
system.cpu.dcache.overall_miss_rate::total     0.034808                       # miss rate for overall accesses
system.cpu.dcache.ReadReq_avg_miss_latency::cpu.data 65280.732534                       # average ReadReq miss latency
system.cpu.dcache.ReadReq_avg_miss_latency::total 65280.732534                       # average ReadReq miss latency
system.cpu.dcache.WriteReq_avg_miss_latency::cpu.data 55814.980468                       # average WriteReq miss latency
system.cpu.dcache.WriteReq_avg_miss_latency::total 55814.980468                       # average WriteReq miss latency
system.cpu.dcache.demand_avg_miss_latency::cpu.data 64964.393224                       # average overall miss latency
system.cpu.dcache.demand_avg_miss_latency::total 64964.393224                       # average overall miss latency
system.cpu.dcache.overall_avg_miss_latency::cpu.data 64964.393224                       # average overall miss latency
system.cpu.dcache.overall_avg_miss_latency::total 64964.393224                       # average overall miss latency
system.cpu.dcache.blocked_cycles::no_mshrs            0                       # number of cycles access was blocked
system.cpu.dcache.blocked_cycles::no_targets            0                       # number of cycles access was blocked
system.cpu.dcache.blocked::no_mshrs                 0                       # number of cycles access was blocked
system.cpu.dcache.blocked::no_targets               0                       # number of cycles access was blocked
system.cpu.dcache.avg_blocked_cycles::no_mshrs          nan                       # average number of cycles each access was blocked
system.cpu.dcache.avg_blocked_cycles::no_targets          nan                       # average number of cycles each access was blocked
system.cpu.dcache.fast_writes                       0                       # number of fast writes performed
system.cpu.dcache.cache_copies                      0                       # number of cache copies performed
system.cpu.dcache.writebacks::writebacks      2508821                       # number of writebacks
system.cpu.dcache.writebacks::total           2508821                       # number of writebacks
system.cpu.dcache.ReadReq_mshr_misses::cpu.data      9884216                       # number of ReadReq MSHR misses
system.cpu.dcache.ReadReq_mshr_misses::total      9884216                       # number of ReadReq MSHR misses
system.cpu.dcache.WriteReq_mshr_misses::cpu.data       341745                       # number of WriteReq MSHR misses
system.cpu.dcache.WriteReq_mshr_misses::total       341745                       # number of WriteReq MSHR misses
system.cpu.dcache.demand_mshr_misses::cpu.data     10225961                       # number of demand (read+write) MSHR misses
system.cpu.dcache.demand_mshr_misses::total     10225961                       # number of demand (read+write) MSHR misses
system.cpu.dcache.overall_mshr_misses::cpu.data     10225961                       # number of overall MSHR misses
system.cpu.dcache.overall_mshr_misses::total     10225961                       # number of overall MSHR misses
system.cpu.dcache.ReadReq_mshr_miss_latency::cpu.data 635364645000                       # number of ReadReq MSHR miss cycles
system.cpu.dcache.ReadReq_mshr_miss_latency::total 635364645000                       # number of ReadReq MSHR miss cycles
system.cpu.dcache.WriteReq_mshr_miss_latency::cpu.data  18732745500                       # number of WriteReq MSHR miss cycles
system.cpu.dcache.WriteReq_mshr_miss_latency::total  18732745500                       # number of WriteReq MSHR miss cycles
system.cpu.dcache.demand_mshr_miss_latency::cpu.data 654097390500                       # number of demand (read+write) MSHR miss cycles
system.cpu.dcache.demand_mshr_miss_latency::total 654097390500                       # number of demand (read+write) MSHR miss cycles
system.cpu.dcache.overall_mshr_miss_latency::cpu.data 654097390500                       # number of overall MSHR miss cycles
system.cpu.dcache.overall_mshr_miss_latency::total 654097390500                       # number of overall MSHR miss cycles
system.cpu.dcache.ReadReq_mshr_miss_rate::cpu.data     0.044664                       # mshr miss rate for ReadReq accesses
system.cpu.dcache.ReadReq_mshr_miss_rate::total     0.044664                       # mshr miss rate for ReadReq accesses
system.cpu.dcache.WriteReq_mshr_miss_rate::cpu.data     0.004715                       # mshr miss rate for WriteReq accesses
system.cpu.dcache.WriteReq_mshr_miss_rate::total     0.004715                       # mshr miss rate for WriteReq accesses
system.cpu.dcache.demand_mshr_miss_rate::cpu.data     0.034808                       # mshr miss rate for demand accesses
system.cpu.dcache.demand_mshr_miss_rate::total     0.034808                       # mshr miss rate for demand accesses
system.cpu.dcache.overall_mshr_miss_rate::cpu.data     0.034808                       # mshr miss rate for overall accesses
system.cpu.dcache.overall_mshr_miss_rate::total     0.034808                       # mshr miss rate for overall accesses
system.cpu.dcache.ReadReq_avg_mshr_miss_latency::cpu.data 64280.732534                       # average ReadReq mshr miss latency
system.cpu.dcache.ReadReq_avg_mshr_miss_latency::total 64280.732534                       # average ReadReq mshr miss latency
system.cpu.dcache.WriteReq_avg_mshr_miss_latency::cpu.data 54814.980468                       # average WriteReq mshr miss latency
system.cpu.dcache.WriteReq_avg_mshr_miss_latency::total 54814.980468                       # average WriteReq mshr miss latency
system.cpu.dcache.demand_avg_mshr_miss_latency::cpu.data 63964.393224                       # average overall mshr miss latency
system.cpu.dcache.demand_avg_mshr_miss_latency::total 63964.393224                       # average overall mshr miss latency
system.cpu.dcache.overall_avg_mshr_miss_latency::cpu.data 63964.393224                       # average overall mshr miss latency
system.cpu.dcache.overall_avg_mshr_miss_latency::total 63964.393224                       # average overall mshr miss latency
system.cpu.dcache.no_allocate_misses                0                       # Number of misses that were no-allocate
system.cpu.dtb_walker_cache.tags.replacements            0                       # number of replacements
system.cpu.dtb_walker_cache.tags.tagsinuse            0                       # Cycle average of tags in use
system.cpu.dtb_walker_cache.tags.total_refs            0                       # Total number of references to valid blocks.
system.cpu.dtb_walker_cache.tags.sampled_refs            0                       # Sample count of references to valid blocks.
system.cpu.dtb_walker_cache.tags.avg_refs          nan                       # Average number of references to valid blocks.
system.cpu.dtb_walker_cache.tags.warmup_cycle            0                       # Cycle when the warmup percentage was hit.
system.cpu.dtb_walker_cache.tags.tag_accesses            0                       # Number of tag accesses
system.cpu.dtb_walker_cache.tags.data_accesses            0                       # Number of data accesses
system.cpu.dtb_walker_cache.blocked_cycles::no_mshrs            0                       # number of cycles access was blocked
system.cpu.dtb_walker_cache.blocked_cycles::no_targets            0                       # number of cycles access was blocked
system.cpu.dtb_walker_cache.blocked::no_mshrs            0                       # number of cycles access was blocked
system.cpu.dtb_walker_cache.blocked::no_targets            0                       # number of cycles access was blocked
system.cpu.dtb_walker_cache.avg_blocked_cycles::no_mshrs          nan                       # average number of cycles each access was blocked
system.cpu.dtb_walker_cache.avg_blocked_cycles::no_targets          nan                       # average number of cycles each access was blocked
system.cpu.dtb_walker_cache.fast_writes             0                       # number of fast writes performed
system.cpu.dtb_walker_cache.cache_copies            0                       # number of cache copies performed
system.cpu.dtb_walker_cache.no_allocate_misses            0                       # Number of misses that were no-allocate
system.cpu.icache.tags.replacements                71                       # number of replacements
system.cpu.icache.tags.tagsinuse           583.293926                       # Cycle average of tags in use
system.cpu.icache.tags.total_refs           677317259                       # Total number of references to valid blocks.
system.cpu.icache.tags.sampled_refs               687                       # Sample count of references to valid blocks.
system.cpu.icache.tags.avg_refs          985905.762737                       # Average number of references to valid blocks.
system.cpu.icache.tags.warmup_cycle                 0                       # Cycle when the warmup percentage was hit.
system.cpu.icache.tags.occ_blocks::cpu.inst   583.293926                       # Average occupied blocks per requestor
system.cpu.icache.tags.occ_percent::cpu.inst     0.284811                       # Average percentage of cache occupancy
system.cpu.icache.tags.occ_percent::total     0.284811                       # Average percentage of cache occupancy
system.cpu.icache.tags.occ_task_id_blocks::1024          616                       # Occupied blocks per task id
system.cpu.icache.tags.age_task_id_blocks_1024::4          616                       # Occupied blocks per task id
system.cpu.icache.tags.occ_task_id_percent::1024     0.300781                       # Percentage of cache occupancy per task id
system.cpu.icache.tags.tag_accesses         677318633                       # Number of tag accesses
system.cpu.icache.tags.data_accesses        677318633                       # Number of data accesses
system.cpu.icache.ReadReq_hits::cpu.inst    677317259                       # number of ReadReq hits
system.cpu.icache.ReadReq_hits::total       677317259                       # number of ReadReq hits
system.cpu.icache.demand_hits::cpu.inst     677317259                       # number of demand (read+write) hits
system.cpu.icache.demand_hits::total        677317259                       # number of demand (read+write) hits
system.cpu.icache.overall_hits::cpu.inst    677317259                       # number of overall hits
system.cpu.icache.overall_hits::total       677317259                       # number of overall hits
system.cpu.icache.ReadReq_misses::cpu.inst          687                       # number of ReadReq misses
system.cpu.icache.ReadReq_misses::total           687                       # number of ReadReq misses
system.cpu.icache.demand_misses::cpu.inst          687                       # number of demand (read+write) misses
system.cpu.icache.demand_misses::total            687                       # number of demand (read+write) misses
system.cpu.icache.overall_misses::cpu.inst          687                       # number of overall misses
system.cpu.icache.overall_misses::total           687                       # number of overall misses
system.cpu.icache.ReadReq_miss_latency::cpu.inst     54851500                       # number of ReadReq miss cycles
system.cpu.icache.ReadReq_miss_latency::total     54851500                       # number of ReadReq miss cycles
system.cpu.icache.demand_miss_latency::cpu.inst     54851500                       # number of demand (read+write) miss cycles
system.cpu.icache.demand_miss_latency::total     54851500                       # number of demand (read+write) miss cycles
system.cpu.icache.overall_miss_latency::cpu.inst     54851500                       # number of overall miss cycles
system.cpu.icache.overall_miss_latency::total     54851500                       # number of overall miss cycles
system.cpu.icache.ReadReq_accesses::cpu.inst    677317946                       # number of ReadReq accesses(hits+misses)
system.cpu.icache.ReadReq_accesses::total    677317946                       # number of ReadReq accesses(hits+misses)
system.cpu.icache.demand_accesses::cpu.inst    677317946                       # number of demand (read+write) accesses
system.cpu.icache.demand_accesses::total    677317946                       # number of demand (read+write) accesses
system.cpu.icache.overall_accesses::cpu.inst    677317946                       # number of overall (read+write) accesses
system.cpu.icache.overall_accesses::total    677317946                       # number of overall (read+write) accesses
system.cpu.icache.ReadReq_miss_rate::cpu.inst     0.000001                       # miss rate for ReadReq accesses
system.cpu.icache.ReadReq_miss_rate::total     0.000001                       # miss rate for ReadReq accesses
system.cpu.icache.demand_miss_rate::cpu.inst     0.000001                       # miss rate for demand accesses
system.cpu.icache.demand_miss_rate::total     0.000001                       # miss rate for demand accesses
system.cpu.icache.overall_miss_rate::cpu.inst     0.000001                       # miss rate for overall accesses
system.cpu.icache.overall_miss_rate::total     0.000001                       # miss rate for overall accesses
system.cpu.icache.ReadReq_avg_miss_latency::cpu.inst 79842.066958                       # average ReadReq miss latency
system.cpu.icache.ReadReq_avg_miss_latency::total 79842.066958                       # average ReadReq miss latency
system.cpu.icache.demand_avg_miss_latency::cpu.inst 79842.066958                       # average overall miss latency
system.cpu.icache.demand_avg_miss_latency::total 79842.066958                       # average overall miss latency
system.cpu.icache.overall_avg_miss_latency::cpu.inst 79842.066958                       # average overall miss latency
system.cpu.icache.overall_avg_miss_latency::total 79842.066958                       # average overall miss latency
system.cpu.icache.blocked_cycles::no_mshrs            0                       # number of cycles access was blocked
system.cpu.icache.blocked_cycles::no_targets            0                       # number of cycles access was blocked
system.cpu.icache.blocked::no_mshrs                 0                       # number of cycles access was blocked
system.cpu.icache.blocked::no_targets               0                       # number of cycles access was blocked
system.cpu.icache.avg_blocked_cycles::no_mshrs          nan                       # average number of cycles each access was blocked
system.cpu.icache.avg_blocked_cycles::no_targets          nan                       # average number of cycles each access was blocked
system.cpu.icache.fast_writes                       0                       # number of fast writes performed
system.cpu.icache.cache_copies                      0                       # number of cache copies performed
system.cpu.icache.writebacks::writebacks           71                       # number of writebacks
system.cpu.icache.writebacks::total                71                       # number of writebacks
system.cpu.icache.ReadReq_mshr_misses::cpu.inst          687                       # number of ReadReq MSHR misses
system.cpu.icache.ReadReq_mshr_misses::total          687                       # number of ReadReq MSHR misses
system.cpu.icache.demand_mshr_misses::cpu.inst          687                       # number of demand (read+write) MSHR misses
system.cpu.icache.demand_mshr_misses::total          687                       # number of demand (read+write) MSHR misses
system.cpu.icache.overall_mshr_misses::cpu.inst          687                       # number of overall MSHR misses
system.cpu.icache.overall_mshr_misses::total          687                       # number of overall MSHR misses
system.cpu.icache.ReadReq_mshr_miss_latency::cpu.inst     54164500                       # number of ReadReq MSHR miss cycles
system.cpu.icache.ReadReq_mshr_miss_latency::total     54164500                       # number of ReadReq MSHR miss cycles
system.cpu.icache.demand_mshr_miss_latency::cpu.inst     54164500                       # number of demand (read+write) MSHR miss cycles
system.cpu.icache.demand_mshr_miss_latency::total     54164500                       # number of demand (read+write) MSHR miss cycles
system.cpu.icache.overall_mshr_miss_latency::cpu.inst     54164500                       # number of overall MSHR miss cycles
system.cpu.icache.overall_mshr_miss_latency::total     54164500                       # number of overall MSHR miss cycles
system.cpu.icache.ReadReq_mshr_miss_rate::cpu.inst     0.000001                       # mshr miss rate for ReadReq accesses
system.cpu.icache.ReadReq_mshr_miss_rate::total     0.000001                       # mshr miss rate for ReadReq accesses
system.cpu.icache.demand_mshr_miss_rate::cpu.inst     0.000001                       # mshr miss rate for demand accesses
system.cpu.icache.demand_mshr_miss_rate::total     0.000001                       # mshr miss rate for demand accesses
system.cpu.icache.overall_mshr_miss_rate::cpu.inst     0.000001                       # mshr miss rate for overall accesses
system.cpu.icache.overall_mshr_miss_rate::total     0.000001                       # mshr miss rate for overall accesses
system.cpu.icache.ReadReq_avg_mshr_miss_latency::cpu.inst 78842.066958                       # average ReadReq mshr miss latency
system.cpu.icache.ReadReq_avg_mshr_miss_latency::total 78842.066958                       # average ReadReq mshr miss latency
system.cpu.icache.demand_avg_mshr_miss_latency::cpu.inst 78842.066958                       # average overall mshr miss latency
system.cpu.icache.demand_avg_mshr_miss_latency::total 78842.066958                       # average overall mshr miss latency
system.cpu.icache.overall_avg_mshr_miss_latency::cpu.inst 78842.066958                       # average overall mshr miss latency
system.cpu.icache.overall_avg_mshr_miss_latency::total 78842.066958                       # average overall mshr miss latency
system.cpu.icache.no_allocate_misses                0                       # Number of misses that were no-allocate
system.cpu.itb_walker_cache.tags.replacements            0                       # number of replacements
system.cpu.itb_walker_cache.tags.tagsinuse            0                       # Cycle average of tags in use
system.cpu.itb_walker_cache.tags.total_refs            0                       # Total number of references to valid blocks.
system.cpu.itb_walker_cache.tags.sampled_refs            0                       # Sample count of references to valid blocks.
system.cpu.itb_walker_cache.tags.avg_refs          nan                       # Average number of references to valid blocks.
system.cpu.itb_walker_cache.tags.warmup_cycle            0                       # Cycle when the warmup percentage was hit.
system.cpu.itb_walker_cache.tags.tag_accesses            0                       # Number of tag accesses
system.cpu.itb_walker_cache.tags.data_accesses            0                       # Number of data accesses
system.cpu.itb_walker_cache.blocked_cycles::no_mshrs            0                       # number of cycles access was blocked
system.cpu.itb_walker_cache.blocked_cycles::no_targets            0                       # number of cycles access was blocked
system.cpu.itb_walker_cache.blocked::no_mshrs            0                       # number of cycles access was blocked
system.cpu.itb_walker_cache.blocked::no_targets            0                       # number of cycles access was blocked
system.cpu.itb_walker_cache.avg_blocked_cycles::no_mshrs          nan                       # average number of cycles each access was blocked
system.cpu.itb_walker_cache.avg_blocked_cycles::no_targets          nan                       # average number of cycles each access was blocked
system.cpu.itb_walker_cache.fast_writes             0                       # number of fast writes performed
system.cpu.itb_walker_cache.cache_copies            0                       # number of cache copies performed
system.cpu.itb_walker_cache.no_allocate_misses            0                       # Number of misses that were no-allocate
system.l2.tags.replacements                   6717124                       # number of replacements
system.l2.tags.tagsinuse                 15988.080781                       # Cycle average of tags in use
system.l2.tags.total_refs                    12660854                       # Total number of references to valid blocks.
system.l2.tags.sampled_refs                   6733451                       # Sample count of references to valid blocks.
system.l2.tags.avg_refs                      1.880292                       # Average number of references to valid blocks.
system.l2.tags.warmup_cycle              330288644500                       # Cycle when the warmup percentage was hit.
system.l2.tags.occ_blocks::writebacks     3316.673899                       # Average occupied blocks per requestor
system.l2.tags.occ_blocks::cpu.inst          1.634047                       # Average occupied blocks per requestor
system.l2.tags.occ_blocks::cpu.data      12669.772835                       # Average occupied blocks per requestor
system.l2.tags.occ_percent::writebacks       0.202434                       # Average percentage of cache occupancy
system.l2.tags.occ_percent::cpu.inst         0.000100                       # Average percentage of cache occupancy
system.l2.tags.occ_percent::cpu.data         0.773302                       # Average percentage of cache occupancy
system.l2.tags.occ_percent::total            0.975835                       # Average percentage of cache occupancy
system.l2.tags.occ_task_id_blocks::1024         16327                       # Occupied blocks per task id
system.l2.tags.age_task_id_blocks_1024::0            1                       # Occupied blocks per task id
system.l2.tags.age_task_id_blocks_1024::1          402                       # Occupied blocks per task id
system.l2.tags.age_task_id_blocks_1024::2         3328                       # Occupied blocks per task id
system.l2.tags.age_task_id_blocks_1024::3         9641                       # Occupied blocks per task id
system.l2.tags.age_task_id_blocks_1024::4         2955                       # Occupied blocks per task id
system.l2.tags.occ_task_id_percent::1024     0.996521                       # Percentage of cache occupancy per task id
system.l2.tags.tag_accesses                  27525827                       # Number of tag accesses
system.l2.tags.data_accesses                 27525827                       # Number of data accesses
system.l2.WritebackDirty_hits::writebacks      2508821                       # number of WritebackDirty hits
system.l2.WritebackDirty_hits::total          2508821                       # number of WritebackDirty hits
system.l2.WritebackClean_hits::writebacks           70                       # number of WritebackClean hits
system.l2.WritebackClean_hits::total               70                       # number of WritebackClean hits
system.l2.ReadExReq_hits::cpu.data             132084                       # number of ReadExReq hits
system.l2.ReadExReq_hits::total                132084                       # number of ReadExReq hits
system.l2.ReadCleanReq_hits::cpu.inst              11                       # number of ReadCleanReq hits
system.l2.ReadCleanReq_hits::total                 11                       # number of ReadCleanReq hits
system.l2.ReadSharedReq_hits::cpu.data        3542426                       # number of ReadSharedReq hits
system.l2.ReadSharedReq_hits::total           3542426                       # number of ReadSharedReq hits
system.l2.demand_hits::cpu.inst                    11                       # number of demand (read+write) hits
system.l2.demand_hits::cpu.data               3674510                       # number of demand (read+write) hits
system.l2.demand_hits::total                  3674521                       # number of demand (read+write) hits
system.l2.overall_hits::cpu.inst                   11                       # number of overall hits
system.l2.overall_hits::cpu.data              3674510                       # number of overall hits
system.l2.overall_hits::total                 3674521                       # number of overall hits
system.l2.ReadExReq_misses::cpu.data           209661                       # number of ReadExReq misses
system.l2.ReadExReq_misses::total              209661                       # number of ReadExReq misses
system.l2.ReadCleanReq_misses::cpu.inst           676                       # number of ReadCleanReq misses
system.l2.ReadCleanReq_misses::total              676                       # number of ReadCleanReq misses
system.l2.ReadSharedReq_misses::cpu.data      6341790                       # number of ReadSharedReq misses
system.l2.ReadSharedReq_misses::total         6341790                       # number of ReadSharedReq misses
system.l2.demand_misses::cpu.inst                 676                       # number of demand (read+write) misses
system.l2.demand_misses::cpu.data             6551451                       # number of demand (read+write) misses
system.l2.demand_misses::total                6552127                       # number of demand (read+write) misses
system.l2.overall_misses::cpu.inst                676                       # number of overall misses
system.l2.overall_misses::cpu.data            6551451                       # number of overall misses
system.l2.overall_misses::total               6552127                       # number of overall misses
system.l2.ReadExReq_miss_latency::cpu.data  16833245000                       # number of ReadExReq miss cycles
system.l2.ReadExReq_miss_latency::total   16833245000                       # number of ReadExReq miss cycles
system.l2.ReadCleanReq_miss_latency::cpu.inst     53015000                       # number of ReadCleanReq miss cycles
system.l2.ReadCleanReq_miss_latency::total     53015000                       # number of ReadCleanReq miss cycles
system.l2.ReadSharedReq_miss_latency::cpu.data 583342847000                       # number of ReadSharedReq miss cycles
system.l2.ReadSharedReq_miss_latency::total 583342847000                       # number of ReadSharedReq miss cycles
system.l2.demand_miss_latency::cpu.inst      53015000                       # number of demand (read+write) miss cycles
system.l2.demand_miss_latency::cpu.data  600176092000                       # number of demand (read+write) miss cycles
system.l2.demand_miss_latency::total     600229107000                       # number of demand (read+write) miss cycles
system.l2.overall_miss_latency::cpu.inst     53015000                       # number of overall miss cycles
system.l2.overall_miss_latency::cpu.data 600176092000                       # number of overall miss cycles
system.l2.overall_miss_latency::total    600229107000                       # number of overall miss cycles
system.l2.WritebackDirty_accesses::writebacks      2508821                       # number of WritebackDirty accesses(hits+misses)
system.l2.WritebackDirty_accesses::total      2508821                       # number of WritebackDirty accesses(hits+misses)
system.l2.WritebackClean_accesses::writebacks           70                       # number of WritebackClean accesses(hits+misses)
system.l2.WritebackClean_accesses::total           70                       # number of WritebackClean accesses(hits+misses)
system.l2.ReadExReq_accesses::cpu.data         341745                       # number of ReadExReq accesses(hits+misses)
system.l2.ReadExReq_accesses::total            341745                       # number of ReadExReq accesses(hits+misses)
system.l2.ReadCleanReq_accesses::cpu.inst          687                       # number of ReadCleanReq accesses(hits+misses)
system.l2.ReadCleanReq_accesses::total            687                       # number of ReadCleanReq accesses(hits+misses)
system.l2.ReadSharedReq_accesses::cpu.data      9884216                       # number of ReadSharedReq accesses(hits+misses)
system.l2.ReadSharedReq_accesses::total       9884216                       # number of ReadSharedReq accesses(hits+misses)
system.l2.demand_accesses::cpu.inst               687                       # number of demand (read+write) accesses
system.l2.demand_accesses::cpu.data          10225961                       # number of demand (read+write) accesses
system.l2.demand_accesses::total             10226648                       # number of demand (read+write) accesses
system.l2.overall_accesses::cpu.inst              687                       # number of overall (read+write) accesses
system.l2.overall_accesses::cpu.data         10225961                       # number of overall (read+write) accesses
system.l2.overall_accesses::total            10226648                       # number of overall (read+write) accesses
system.l2.ReadExReq_miss_rate::cpu.data      0.613501                       # miss rate for ReadExReq accesses
system.l2.ReadExReq_miss_rate::total         0.613501                       # miss rate for ReadExReq accesses
system.l2.ReadCleanReq_miss_rate::cpu.inst     0.983988                       # miss rate for ReadCleanReq accesses
system.l2.ReadCleanReq_miss_rate::total      0.983988                       # miss rate for ReadCleanReq accesses
system.l2.ReadSharedReq_miss_rate::cpu.data     0.641608                       # miss rate for ReadSharedReq accesses
system.l2.ReadSharedReq_miss_rate::total     0.641608                       # miss rate for ReadSharedReq accesses
system.l2.demand_miss_rate::cpu.inst         0.983988                       # miss rate for demand accesses
system.l2.demand_miss_rate::cpu.data         0.640668                       # miss rate for demand accesses
system.l2.demand_miss_rate::total            0.640692                       # miss rate for demand accesses
system.l2.overall_miss_rate::cpu.inst        0.983988                       # miss rate for overall accesses
system.l2.overall_miss_rate::cpu.data        0.640668                       # miss rate for overall accesses
system.l2.overall_miss_rate::total           0.640692                       # miss rate for overall accesses
system.l2.ReadExReq_avg_miss_latency::cpu.data 80287.917162                       # average ReadExReq miss latency
system.l2.ReadExReq_avg_miss_latency::total 80287.917162                       # average ReadExReq miss latency
system.l2.ReadCleanReq_avg_miss_latency::cpu.inst 78424.556213                       # average ReadCleanReq miss latency
system.l2.ReadCleanReq_avg_miss_latency::total 78424.556213                       # average ReadCleanReq miss latency
system.l2.ReadSharedReq_avg_miss_latency::cpu.data 91983.942546                       # average ReadSharedReq miss latency
system.l2.ReadSharedReq_avg_miss_latency::total 91983.942546                       # average ReadSharedReq miss latency
system.l2.demand_avg_miss_latency::cpu.inst 78424.556213                       # average overall miss latency
system.l2.demand_avg_miss_latency::cpu.data 91609.643726                       # average overall miss latency
system.l2.demand_avg_miss_latency::total 91608.283386                       # average overall miss latency
system.l2.overall_avg_miss_latency::cpu.inst 78424.556213                       # average overall miss latency
system.l2.overall_avg_miss_latency::cpu.data 91609.643726                       # average overall miss latency
system.l2.overall_avg_miss_latency::total 91608.283386                       # average overall miss latency
system.l2.blocked_cycles::no_mshrs                  0                       # number of cycles access was blocked
system.l2.blocked_cycles::no_targets                0                       # number of cycles access was blocked
system.l2.blocked::no_mshrs                         0                       # number of cycles access was blocked
system.l2.blocked::no_targets                       0                       # number of cycles access was blocked
system.l2.avg_blocked_cycles::no_mshrs            nan                       # average number of cycles each access was blocked
system.l2.avg_blocked_cycles::no_targets          nan                       # average number of cycles each access was blocked
system.l2.fast_writes                               0                       # number of fast writes performed
system.l2.cache_copies                              0                       # number of cache copies performed
system.l2.writebacks::writebacks              1115045                       # number of writebacks
system.l2.writebacks::total                   1115045                       # number of writebacks
system.l2.CleanEvict_mshr_misses::writebacks       714295                       # number of CleanEvict MSHR misses
system.l2.CleanEvict_mshr_misses::total        714295                       # number of CleanEvict MSHR misses
system.l2.ReadExReq_mshr_misses::cpu.data       209661                       # number of ReadExReq MSHR misses
system.l2.ReadExReq_mshr_misses::total         209661                       # number of ReadExReq MSHR misses
system.l2.ReadCleanReq_mshr_misses::cpu.inst          676                       # number of ReadCleanReq MSHR misses
system.l2.ReadCleanReq_mshr_misses::total          676                       # number of ReadCleanReq MSHR misses
system.l2.ReadSharedReq_mshr_misses::cpu.data      6341790                       # number of ReadSharedReq MSHR misses
system.l2.ReadSharedReq_mshr_misses::total      6341790                       # number of ReadSharedReq MSHR misses
system.l2.demand_mshr_misses::cpu.inst            676                       # number of demand (read+write) MSHR misses
system.l2.demand_mshr_misses::cpu.data        6551451                       # number of demand (read+write) MSHR misses
system.l2.demand_mshr_misses::total           6552127                       # number of demand (read+write) MSHR misses
system.l2.overall_mshr_misses::cpu.inst           676                       # number of overall MSHR misses
system.l2.overall_mshr_misses::cpu.data       6551451                       # number of overall MSHR misses
system.l2.overall_mshr_misses::total          6552127                       # number of overall MSHR misses
system.l2.ReadExReq_mshr_miss_latency::cpu.data  14736635000                       # number of ReadExReq MSHR miss cycles
system.l2.ReadExReq_mshr_miss_latency::total  14736635000                       # number of ReadExReq MSHR miss cycles
system.l2.ReadCleanReq_mshr_miss_latency::cpu.inst     46255000                       # number of ReadCleanReq MSHR miss cycles
system.l2.ReadCleanReq_mshr_miss_latency::total     46255000                       # number of ReadCleanReq MSHR miss cycles
system.l2.ReadSharedReq_mshr_miss_latency::cpu.data 519924947000                       # number of ReadSharedReq MSHR miss cycles
system.l2.ReadSharedReq_mshr_miss_latency::total 519924947000                       # number of ReadSharedReq MSHR miss cycles
system.l2.demand_mshr_miss_latency::cpu.inst     46255000                       # number of demand (read+write) MSHR miss cycles
system.l2.demand_mshr_miss_latency::cpu.data 534661582000                       # number of demand (read+write) MSHR miss cycles
system.l2.demand_mshr_miss_latency::total 534707837000                       # number of demand (read+write) MSHR miss cycles
system.l2.overall_mshr_miss_latency::cpu.inst     46255000                       # number of overall MSHR miss cycles
system.l2.overall_mshr_miss_latency::cpu.data 534661582000                       # number of overall MSHR miss cycles
system.l2.overall_mshr_miss_latency::total 534707837000                       # number of overall MSHR miss cycles
system.l2.CleanEvict_mshr_miss_rate::writebacks          inf                       # mshr miss rate for CleanEvict accesses
system.l2.CleanEvict_mshr_miss_rate::total          inf                       # mshr miss rate for CleanEvict accesses
system.l2.ReadExReq_mshr_miss_rate::cpu.data     0.613501                       # mshr miss rate for ReadExReq accesses
system.l2.ReadExReq_mshr_miss_rate::total     0.613501                       # mshr miss rate for ReadExReq accesses
system.l2.ReadCleanReq_mshr_miss_rate::cpu.inst     0.983988                       # mshr miss rate for ReadCleanReq accesses
system.l2.ReadCleanReq_mshr_miss_rate::total     0.983988                       # mshr miss rate for ReadCleanReq accesses
system.l2.ReadSharedReq_mshr_miss_rate::cpu.data     0.641608                       # mshr miss rate for ReadSharedReq accesses
system.l2.ReadSharedReq_mshr_miss_rate::total     0.641608                       # mshr miss rate for ReadSharedReq accesses
system.l2.demand_mshr_miss_rate::cpu.inst     0.983988                       # mshr miss rate for demand accesses
system.l2.demand_mshr_miss_rate::cpu.data     0.640668                       # mshr miss rate for demand accesses
system.l2.demand_mshr_miss_rate::total       0.640692                       # mshr miss rate for demand accesses
system.l2.overall_mshr_miss_rate::cpu.inst     0.983988                       # mshr miss rate for overall accesses
system.l2.overall_mshr_miss_rate::cpu.data     0.640668                       # mshr miss rate for overall accesses
system.l2.overall_mshr_miss_rate::total      0.640692                       # mshr miss rate for overall accesses
system.l2.ReadExReq_avg_mshr_miss_latency::cpu.data 70287.917162                       # average ReadExReq mshr miss latency
system.l2.ReadExReq_avg_mshr_miss_latency::total 70287.917162                       # average ReadExReq mshr miss latency
system.l2.ReadCleanReq_avg_mshr_miss_latency::cpu.inst 68424.556213                       # average ReadCleanReq mshr miss latency
system.l2.ReadCleanReq_avg_mshr_miss_latency::total 68424.556213                       # average ReadCleanReq mshr miss latency
system.l2.ReadSharedReq_avg_mshr_miss_latency::cpu.data 81983.942546                       # average ReadSharedReq mshr miss latency
system.l2.ReadSharedReq_avg_mshr_miss_latency::total 81983.942546                       # average ReadSharedReq mshr miss latency
system.l2.demand_avg_mshr_miss_latency::cpu.inst 68424.556213                       # average overall mshr miss latency
system.l2.demand_avg_mshr_miss_latency::cpu.data 81609.643726                       # average overall mshr miss latency
system.l2.demand_avg_mshr_miss_latency::total 81608.283386                       # average overall mshr miss latency
system.l2.overall_avg_mshr_miss_latency::cpu.inst 68424.556213                       # average overall mshr miss latency
system.l2.overall_avg_mshr_miss_latency::cpu.data 81609.643726                       # average overall mshr miss latency
system.l2.overall_avg_mshr_miss_latency::total 81608.283386                       # average overall mshr miss latency
system.l2.no_allocate_misses                        0                       # Number of misses that were no-allocate
system.membus.trans_dist::ReadResp            6342466                       # Transaction distribution
system.membus.trans_dist::WritebackDirty      1115045                       # Transaction distribution
system.membus.trans_dist::CleanEvict          5420000                       # Transaction distribution
system.membus.trans_dist::ReadExReq            209661                       # Transaction distribution
system.membus.trans_dist::ReadExResp           209661                       # Transaction distribution
system.membus.trans_dist::ReadSharedReq       6342466                       # Transaction distribution
system.membus.pkt_count_system.l2.mem_side::system.mem_ctrls.port     19639299                       # Packet count per connected master and slave (bytes)
system.membus.pkt_count_system.l2.mem_side::total     19639299                       # Packet count per connected master and slave (bytes)
system.membus.pkt_count::total               19639299                       # Packet count per connected master and slave (bytes)
system.membus.pkt_size_system.l2.mem_side::system.mem_ctrls.port    490699008                       # Cumulative packet size per connected master and slave (bytes)
system.membus.pkt_size_system.l2.mem_side::total    490699008                       # Cumulative packet size per connected master and slave (bytes)
system.membus.pkt_size::total               490699008                       # Cumulative packet size per connected master and slave (bytes)
system.membus.snoops                                0                       # Total snoops (count)
system.membus.snoop_fanout::samples          13087172                       # Request fanout histogram
system.membus.snoop_fanout::mean                    0                       # Request fanout histogram
system.membus.snoop_fanout::stdev                   0                       # Request fanout histogram
system.membus.snoop_fanout::underflows              0      0.00%      0.00% # Request fanout histogram
system.membus.snoop_fanout::0                13087172    100.00%    100.00% # Request fanout histogram
system.membus.snoop_fanout::1                       0      0.00%    100.00% # Request fanout histogram
system.membus.snoop_fanout::overflows               0      0.00%    100.00% # Request fanout histogram
system.membus.snoop_fanout::min_value               0                       # Request fanout histogram
system.membus.snoop_fanout::max_value               0                       # Request fanout histogram
system.membus.snoop_fanout::total            13087172                       # Request fanout histogram
system.membus.reqLayer2.occupancy         17554417000                       # Layer occupancy (ticks)
system.membus.reqLayer2.utilization               1.1                       # Layer utilization (%)
system.membus.respLayer1.occupancy        36555952250                       # Layer occupancy (ticks)
system.membus.respLayer1.utilization              2.2                       # Layer utilization (%)
system.tol2bus.snoop_filter.tot_requests     20450632                       # Total number of requests made to the snoop filter.
system.tol2bus.snoop_filter.hit_single_requests     10223984                       # Number of requests hitting in the snoop filter with a single holder of the requested data.
system.tol2bus.snoop_filter.hit_multi_requests            1                       # Number of requests hitting in the snoop filter with multiple (>1) holders of the requested data.
system.tol2bus.snoop_filter.tot_snoops         896374                       # Total number of snoops made to the snoop filter.
system.tol2bus.snoop_filter.hit_single_snoops       896374                       # Number of snoops hitting in the snoop filter with a single holder of the requested data.
system.tol2bus.snoop_filter.hit_multi_snoops            0                       # Number of snoops hitting in the snoop filter with multiple (>1) holders of the requested data.
system.tol2bus.trans_dist::ReadResp           9884903                       # Transaction distribution
system.tol2bus.trans_dist::WritebackDirty      3623866                       # Transaction distribution
system.tol2bus.trans_dist::WritebackClean           70                       # Transaction distribution
system.tol2bus.trans_dist::CleanEvict        13317171                       # Transaction distribution
system.tol2bus.trans_dist::ReadExReq           341745                       # Transaction distribution
system.tol2bus.trans_dist::ReadExResp          341745                       # Transaction distribution
system.tol2bus.trans_dist::ReadCleanReq           687                       # Transaction distribution
system.tol2bus.trans_dist::ReadSharedReq      9884216                       # Transaction distribution
system.tol2bus.pkt_count_system.cpu.icache.mem_side::system.l2.cpu_side         1444                       # Packet count per connected master and slave (bytes)
system.tol2bus.pkt_count_system.cpu.dcache.mem_side::system.l2.cpu_side     30675835                       # Packet count per connected master and slave (bytes)
system.tol2bus.pkt_count::total              30677279                       # Packet count per connected master and slave (bytes)
system.tol2bus.pkt_size_system.cpu.icache.mem_side::system.l2.cpu_side        48448                       # Cumulative packet size per connected master and slave (bytes)
system.tol2bus.pkt_size_system.cpu.dcache.mem_side::system.l2.cpu_side    815026048                       # Cumulative packet size per connected master and slave (bytes)
system.tol2bus.pkt_size::total              815074496                       # Cumulative packet size per connected master and slave (bytes)
system.tol2bus.snoops                         6717124                       # Total snoops (count)
system.tol2bus.snoop_fanout::samples         16943772                       # Request fanout histogram
system.tol2bus.snoop_fanout::mean            0.052903                       # Request fanout histogram
system.tol2bus.snoop_fanout::stdev           0.223840                       # Request fanout histogram
system.tol2bus.snoop_fanout::underflows             0      0.00%      0.00% # Request fanout histogram
system.tol2bus.snoop_fanout::0               16047397     94.71%     94.71% # Request fanout histogram
system.tol2bus.snoop_fanout::1                 896375      5.29%    100.00% # Request fanout histogram
system.tol2bus.snoop_fanout::2                      0      0.00%    100.00% # Request fanout histogram
system.tol2bus.snoop_fanout::3                      0      0.00%    100.00% # Request fanout histogram
system.tol2bus.snoop_fanout::4                      0      0.00%    100.00% # Request fanout histogram
system.tol2bus.snoop_fanout::overflows              0      0.00%    100.00% # Request fanout histogram
system.tol2bus.snoop_fanout::min_value              0                       # Request fanout histogram
system.tol2bus.snoop_fanout::max_value              1                       # Request fanout histogram
system.tol2bus.snoop_fanout::total           16943772                       # Request fanout histogram
system.tol2bus.reqLayer0.occupancy        12734208000                       # Layer occupancy (ticks)
system.tol2bus.reqLayer0.utilization              0.8                       # Layer utilization (%)
system.tol2bus.respLayer0.occupancy           1030500                       # Layer occupancy (ticks)
system.tol2bus.respLayer0.utilization             0.0                       # Layer utilization (%)
system.tol2bus.respLayer1.occupancy       15338941500                       # Layer occupancy (ticks)
system.tol2bus.respLayer1.utilization             0.9                       # Layer utilization (%)

---------- End Simulation Statistics   ----------
