
---------- Begin Simulation Statistics ----------
sim_seconds                                  1.118057                       # Number of seconds simulated
sim_ticks                                1118057151500                       # Number of ticks simulated
final_tick                               1118057151500                       # Number of ticks from beginning of simulation (restored from checkpoints and never reset)
sim_freq                                 1000000000000                       # Frequency of simulated ticks
host_inst_rate                                  37471                       # Simulator instruction rate (inst/s)
host_op_rate                                    54741                       # Simulator op (including micro ops) rate (op/s)
host_tick_rate                               83788764                       # Simulator tick rate (ticks/s)
host_mem_usage                                 826232                       # Number of bytes of host memory used
host_seconds                                 13343.76                       # Real time elapsed on the host
sim_insts                                   500000001                       # Number of instructions simulated
sim_ops                                     730450447                       # Number of ops (including micro ops) simulated
system.voltage_domain.voltage                       1                       # Voltage in Volts
system.clk_domain.clock                          1000                       # Clock period in ticks
system.mem_ctrls.bytes_read::cpu.inst           63552                       # Number of bytes read from this memory
system.mem_ctrls.bytes_read::cpu.data        95609728                       # Number of bytes read from this memory
system.mem_ctrls.bytes_read::total           95673280                       # Number of bytes read from this memory
system.mem_ctrls.bytes_inst_read::cpu.inst        63552                       # Number of instructions bytes read from this memory
system.mem_ctrls.bytes_inst_read::total         63552                       # Number of instructions bytes read from this memory
system.mem_ctrls.bytes_written::writebacks     40626176                       # Number of bytes written to this memory
system.mem_ctrls.bytes_written::total        40626176                       # Number of bytes written to this memory
system.mem_ctrls.num_reads::cpu.inst              993                       # Number of read requests responded to by this memory
system.mem_ctrls.num_reads::cpu.data          1493902                       # Number of read requests responded to by this memory
system.mem_ctrls.num_reads::total             1494895                       # Number of read requests responded to by this memory
system.mem_ctrls.num_writes::writebacks        634784                       # Number of write requests responded to by this memory
system.mem_ctrls.num_writes::total             634784                       # Number of write requests responded to by this memory
system.mem_ctrls.bw_read::cpu.inst              56841                       # Total read bandwidth from this memory (bytes/s)
system.mem_ctrls.bw_read::cpu.data           85514169                       # Total read bandwidth from this memory (bytes/s)
system.mem_ctrls.bw_read::total              85571010                       # Total read bandwidth from this memory (bytes/s)
system.mem_ctrls.bw_inst_read::cpu.inst         56841                       # Instruction read bandwidth from this memory (bytes/s)
system.mem_ctrls.bw_inst_read::total            56841                       # Instruction read bandwidth from this memory (bytes/s)
system.mem_ctrls.bw_write::writebacks        36336404                       # Write bandwidth from this memory (bytes/s)
system.mem_ctrls.bw_write::total             36336404                       # Write bandwidth from this memory (bytes/s)
system.mem_ctrls.bw_total::writebacks        36336404                       # Total bandwidth to/from this memory (bytes/s)
system.mem_ctrls.bw_total::cpu.inst             56841                       # Total bandwidth to/from this memory (bytes/s)
system.mem_ctrls.bw_total::cpu.data          85514169                       # Total bandwidth to/from this memory (bytes/s)
system.mem_ctrls.bw_total::total            121907414                       # Total bandwidth to/from this memory (bytes/s)
system.mem_ctrls.readReqs                     1494895                       # Number of read requests accepted
system.mem_ctrls.writeReqs                     634784                       # Number of write requests accepted
system.mem_ctrls.readBursts                   1494895                       # Number of DRAM read bursts, including those serviced by the write queue
system.mem_ctrls.writeBursts                   634784                       # Number of DRAM write bursts, including those merged in the write queue
system.mem_ctrls.bytesReadDRAM               95418816                       # Total number of bytes read from DRAM
system.mem_ctrls.bytesReadWrQ                  254464                       # Total number of bytes read from write queue
system.mem_ctrls.bytesWritten                40617792                       # Total number of bytes written to DRAM
system.mem_ctrls.bytesReadSys                95673280                       # Total read bytes from the system interface side
system.mem_ctrls.bytesWrittenSys             40626176                       # Total written bytes from the system interface side
system.mem_ctrls.servicedByWrQ                   3976                       # Number of DRAM read bursts serviced by the write queue
system.mem_ctrls.mergedWrBursts                   112                       # Number of DRAM write bursts merged with an existing one
system.mem_ctrls.neitherReadNorWriteReqs       854910                       # Number of requests that are neither read nor write
system.mem_ctrls.perBankRdBursts::0             96358                       # Per bank write bursts
system.mem_ctrls.perBankRdBursts::1             96377                       # Per bank write bursts
system.mem_ctrls.perBankRdBursts::2             96876                       # Per bank write bursts
system.mem_ctrls.perBankRdBursts::3             90978                       # Per bank write bursts
system.mem_ctrls.perBankRdBursts::4             91396                       # Per bank write bursts
system.mem_ctrls.perBankRdBursts::5             91666                       # Per bank write bursts
system.mem_ctrls.perBankRdBursts::6             96991                       # Per bank write bursts
system.mem_ctrls.perBankRdBursts::7             91347                       # Per bank write bursts
system.mem_ctrls.perBankRdBursts::8             80024                       # Per bank write bursts
system.mem_ctrls.perBankRdBursts::9             79186                       # Per bank write bursts
system.mem_ctrls.perBankRdBursts::10            90082                       # Per bank write bursts
system.mem_ctrls.perBankRdBursts::11            94981                       # Per bank write bursts
system.mem_ctrls.perBankRdBursts::12            96725                       # Per bank write bursts
system.mem_ctrls.perBankRdBursts::13            95817                       # Per bank write bursts
system.mem_ctrls.perBankRdBursts::14           100301                       # Per bank write bursts
system.mem_ctrls.perBankRdBursts::15           101814                       # Per bank write bursts
system.mem_ctrls.perBankWrBursts::0             40011                       # Per bank write bursts
system.mem_ctrls.perBankWrBursts::1             39460                       # Per bank write bursts
system.mem_ctrls.perBankWrBursts::2             41707                       # Per bank write bursts
system.mem_ctrls.perBankWrBursts::3             38416                       # Per bank write bursts
system.mem_ctrls.perBankWrBursts::4             36494                       # Per bank write bursts
system.mem_ctrls.perBankWrBursts::5             37140                       # Per bank write bursts
system.mem_ctrls.perBankWrBursts::6             39537                       # Per bank write bursts
system.mem_ctrls.perBankWrBursts::7             39970                       # Per bank write bursts
system.mem_ctrls.perBankWrBursts::8             38606                       # Per bank write bursts
system.mem_ctrls.perBankWrBursts::9             38096                       # Per bank write bursts
system.mem_ctrls.perBankWrBursts::10            39789                       # Per bank write bursts
system.mem_ctrls.perBankWrBursts::11            39963                       # Per bank write bursts
system.mem_ctrls.perBankWrBursts::12            38785                       # Per bank write bursts
system.mem_ctrls.perBankWrBursts::13            40029                       # Per bank write bursts
system.mem_ctrls.perBankWrBursts::14            42428                       # Per bank write bursts
system.mem_ctrls.perBankWrBursts::15            44222                       # Per bank write bursts
system.mem_ctrls.numRdRetry                         0                       # Number of times read queue was full causing retry
system.mem_ctrls.numWrRetry                         0                       # Number of times write queue was full causing retry
system.mem_ctrls.totGap                  1118024324500                       # Total gap between requests
system.mem_ctrls.readPktSize::0                     0                       # Read request sizes (log2)
system.mem_ctrls.readPktSize::1                     0                       # Read request sizes (log2)
system.mem_ctrls.readPktSize::2                     0                       # Read request sizes (log2)
system.mem_ctrls.readPktSize::3                     0                       # Read request sizes (log2)
system.mem_ctrls.readPktSize::4                     0                       # Read request sizes (log2)
system.mem_ctrls.readPktSize::5                     0                       # Read request sizes (log2)
system.mem_ctrls.readPktSize::6               1494895                       # Read request sizes (log2)
system.mem_ctrls.writePktSize::0                    0                       # Write request sizes (log2)
system.mem_ctrls.writePktSize::1                    0                       # Write request sizes (log2)
system.mem_ctrls.writePktSize::2                    0                       # Write request sizes (log2)
system.mem_ctrls.writePktSize::3                    0                       # Write request sizes (log2)
system.mem_ctrls.writePktSize::4                    0                       # Write request sizes (log2)
system.mem_ctrls.writePktSize::5                    0                       # Write request sizes (log2)
system.mem_ctrls.writePktSize::6               634784                       # Write request sizes (log2)
system.mem_ctrls.rdQLenPdf::0                 1482050                       # What read queue length does an incoming req see
system.mem_ctrls.rdQLenPdf::1                    7778                       # What read queue length does an incoming req see
system.mem_ctrls.rdQLenPdf::2                     673                       # What read queue length does an incoming req see
system.mem_ctrls.rdQLenPdf::3                     418                       # What read queue length does an incoming req see
system.mem_ctrls.rdQLenPdf::4                       0                       # What read queue length does an incoming req see
system.mem_ctrls.rdQLenPdf::5                       0                       # What read queue length does an incoming req see
system.mem_ctrls.rdQLenPdf::6                       0                       # What read queue length does an incoming req see
system.mem_ctrls.rdQLenPdf::7                       0                       # What read queue length does an incoming req see
system.mem_ctrls.rdQLenPdf::8                       0                       # What read queue length does an incoming req see
system.mem_ctrls.rdQLenPdf::9                       0                       # What read queue length does an incoming req see
system.mem_ctrls.rdQLenPdf::10                      0                       # What read queue length does an incoming req see
system.mem_ctrls.rdQLenPdf::11                      0                       # What read queue length does an incoming req see
system.mem_ctrls.rdQLenPdf::12                      0                       # What read queue length does an incoming req see
system.mem_ctrls.rdQLenPdf::13                      0                       # What read queue length does an incoming req see
system.mem_ctrls.rdQLenPdf::14                      0                       # What read queue length does an incoming req see
system.mem_ctrls.rdQLenPdf::15                      0                       # What read queue length does an incoming req see
system.mem_ctrls.rdQLenPdf::16                      0                       # What read queue length does an incoming req see
system.mem_ctrls.rdQLenPdf::17                      0                       # What read queue length does an incoming req see
system.mem_ctrls.rdQLenPdf::18                      0                       # What read queue length does an incoming req see
system.mem_ctrls.rdQLenPdf::19                      0                       # What read queue length does an incoming req see
system.mem_ctrls.rdQLenPdf::20                      0                       # What read queue length does an incoming req see
system.mem_ctrls.rdQLenPdf::21                      0                       # What read queue length does an incoming req see
system.mem_ctrls.rdQLenPdf::22                      0                       # What read queue length does an incoming req see
system.mem_ctrls.rdQLenPdf::23                      0                       # What read queue length does an incoming req see
system.mem_ctrls.rdQLenPdf::24                      0                       # What read queue length does an incoming req see
system.mem_ctrls.rdQLenPdf::25                      0                       # What read queue length does an incoming req see
system.mem_ctrls.rdQLenPdf::26                      0                       # What read queue length does an incoming req see
system.mem_ctrls.rdQLenPdf::27                      0                       # What read queue length does an incoming req see
system.mem_ctrls.rdQLenPdf::28                      0                       # What read queue length does an incoming req see
system.mem_ctrls.rdQLenPdf::29                      0                       # What read queue length does an incoming req see
system.mem_ctrls.rdQLenPdf::30                      0                       # What read queue length does an incoming req see
system.mem_ctrls.rdQLenPdf::31                      0                       # What read queue length does an incoming req see
system.mem_ctrls.wrQLenPdf::0                       1                       # What write queue length does an incoming req see
system.mem_ctrls.wrQLenPdf::1                       1                       # What write queue length does an incoming req see
system.mem_ctrls.wrQLenPdf::2                       1                       # What write queue length does an incoming req see
system.mem_ctrls.wrQLenPdf::3                       1                       # What write queue length does an incoming req see
system.mem_ctrls.wrQLenPdf::4                       1                       # What write queue length does an incoming req see
system.mem_ctrls.wrQLenPdf::5                       1                       # What write queue length does an incoming req see
system.mem_ctrls.wrQLenPdf::6                       1                       # What write queue length does an incoming req see
system.mem_ctrls.wrQLenPdf::7                       1                       # What write queue length does an incoming req see
system.mem_ctrls.wrQLenPdf::8                       1                       # What write queue length does an incoming req see
system.mem_ctrls.wrQLenPdf::9                       1                       # What write queue length does an incoming req see
system.mem_ctrls.wrQLenPdf::10                      1                       # What write queue length does an incoming req see
system.mem_ctrls.wrQLenPdf::11                      1                       # What write queue length does an incoming req see
system.mem_ctrls.wrQLenPdf::12                      1                       # What write queue length does an incoming req see
system.mem_ctrls.wrQLenPdf::13                      1                       # What write queue length does an incoming req see
system.mem_ctrls.wrQLenPdf::14                      1                       # What write queue length does an incoming req see
system.mem_ctrls.wrQLenPdf::15                  18828                       # What write queue length does an incoming req see
system.mem_ctrls.wrQLenPdf::16                  21491                       # What write queue length does an incoming req see
system.mem_ctrls.wrQLenPdf::17                  36107                       # What write queue length does an incoming req see
system.mem_ctrls.wrQLenPdf::18                  37098                       # What write queue length does an incoming req see
system.mem_ctrls.wrQLenPdf::19                  37075                       # What write queue length does an incoming req see
system.mem_ctrls.wrQLenPdf::20                  37047                       # What write queue length does an incoming req see
system.mem_ctrls.wrQLenPdf::21                  37037                       # What write queue length does an incoming req see
system.mem_ctrls.wrQLenPdf::22                  37026                       # What write queue length does an incoming req see
system.mem_ctrls.wrQLenPdf::23                  37005                       # What write queue length does an incoming req see
system.mem_ctrls.wrQLenPdf::24                  37004                       # What write queue length does an incoming req see
system.mem_ctrls.wrQLenPdf::25                  37192                       # What write queue length does an incoming req see
system.mem_ctrls.wrQLenPdf::26                  37393                       # What write queue length does an incoming req see
system.mem_ctrls.wrQLenPdf::27                  38013                       # What write queue length does an incoming req see
system.mem_ctrls.wrQLenPdf::28                  38251                       # What write queue length does an incoming req see
system.mem_ctrls.wrQLenPdf::29                  37058                       # What write queue length does an incoming req see
system.mem_ctrls.wrQLenPdf::30                  37022                       # What write queue length does an incoming req see
system.mem_ctrls.wrQLenPdf::31                  36989                       # What write queue length does an incoming req see
system.mem_ctrls.wrQLenPdf::32                  36988                       # What write queue length does an incoming req see
system.mem_ctrls.wrQLenPdf::33                     33                       # What write queue length does an incoming req see
system.mem_ctrls.wrQLenPdf::34                      0                       # What write queue length does an incoming req see
system.mem_ctrls.wrQLenPdf::35                      0                       # What write queue length does an incoming req see
system.mem_ctrls.wrQLenPdf::36                      0                       # What write queue length does an incoming req see
system.mem_ctrls.wrQLenPdf::37                      0                       # What write queue length does an incoming req see
system.mem_ctrls.wrQLenPdf::38                      0                       # What write queue length does an incoming req see
system.mem_ctrls.wrQLenPdf::39                      0                       # What write queue length does an incoming req see
system.mem_ctrls.wrQLenPdf::40                      0                       # What write queue length does an incoming req see
system.mem_ctrls.wrQLenPdf::41                      0                       # What write queue length does an incoming req see
system.mem_ctrls.wrQLenPdf::42                      0                       # What write queue length does an incoming req see
system.mem_ctrls.wrQLenPdf::43                      0                       # What write queue length does an incoming req see
system.mem_ctrls.wrQLenPdf::44                      0                       # What write queue length does an incoming req see
system.mem_ctrls.wrQLenPdf::45                      0                       # What write queue length does an incoming req see
system.mem_ctrls.wrQLenPdf::46                      0                       # What write queue length does an incoming req see
system.mem_ctrls.wrQLenPdf::47                      0                       # What write queue length does an incoming req see
system.mem_ctrls.wrQLenPdf::48                      0                       # What write queue length does an incoming req see
system.mem_ctrls.wrQLenPdf::49                      0                       # What write queue length does an incoming req see
system.mem_ctrls.wrQLenPdf::50                      0                       # What write queue length does an incoming req see
system.mem_ctrls.wrQLenPdf::51                      0                       # What write queue length does an incoming req see
system.mem_ctrls.wrQLenPdf::52                      0                       # What write queue length does an incoming req see
system.mem_ctrls.wrQLenPdf::53                      0                       # What write queue length does an incoming req see
system.mem_ctrls.wrQLenPdf::54                      0                       # What write queue length does an incoming req see
system.mem_ctrls.wrQLenPdf::55                      0                       # What write queue length does an incoming req see
system.mem_ctrls.wrQLenPdf::56                      0                       # What write queue length does an incoming req see
system.mem_ctrls.wrQLenPdf::57                      0                       # What write queue length does an incoming req see
system.mem_ctrls.wrQLenPdf::58                      0                       # What write queue length does an incoming req see
system.mem_ctrls.wrQLenPdf::59                      0                       # What write queue length does an incoming req see
system.mem_ctrls.wrQLenPdf::60                      0                       # What write queue length does an incoming req see
system.mem_ctrls.wrQLenPdf::61                      0                       # What write queue length does an incoming req see
system.mem_ctrls.wrQLenPdf::62                      0                       # What write queue length does an incoming req see
system.mem_ctrls.wrQLenPdf::63                      0                       # What write queue length does an incoming req see
system.mem_ctrls.bytesPerActivate::samples      1277847                       # Bytes accessed per row activation
system.mem_ctrls.bytesPerActivate::mean    106.457665                       # Bytes accessed per row activation
system.mem_ctrls.bytesPerActivate::gmean    85.071633                       # Bytes accessed per row activation
system.mem_ctrls.bytesPerActivate::stdev   118.614673                       # Bytes accessed per row activation
system.mem_ctrls.bytesPerActivate::0-127       930141     72.79%     72.79% # Bytes accessed per row activation
system.mem_ctrls.bytesPerActivate::128-255       264333     20.69%     93.48% # Bytes accessed per row activation
system.mem_ctrls.bytesPerActivate::256-383        38735      3.03%     96.51% # Bytes accessed per row activation
system.mem_ctrls.bytesPerActivate::384-511        13295      1.04%     97.55% # Bytes accessed per row activation
system.mem_ctrls.bytesPerActivate::512-639        15667      1.23%     98.77% # Bytes accessed per row activation
system.mem_ctrls.bytesPerActivate::640-767         2878      0.23%     99.00% # Bytes accessed per row activation
system.mem_ctrls.bytesPerActivate::768-895         2192      0.17%     99.17% # Bytes accessed per row activation
system.mem_ctrls.bytesPerActivate::896-1023         1414      0.11%     99.28% # Bytes accessed per row activation
system.mem_ctrls.bytesPerActivate::1024-1151         9192      0.72%    100.00% # Bytes accessed per row activation
system.mem_ctrls.bytesPerActivate::total      1277847                       # Bytes accessed per row activation
system.mem_ctrls.rdPerTurnAround::samples        36988                       # Reads before turning the bus around for writes
system.mem_ctrls.rdPerTurnAround::mean      40.217070                       # Reads before turning the bus around for writes
system.mem_ctrls.rdPerTurnAround::gmean     28.190977                       # Reads before turning the bus around for writes
system.mem_ctrls.rdPerTurnAround::stdev    184.388433                       # Reads before turning the bus around for writes
system.mem_ctrls.rdPerTurnAround::0-1023        36934     99.85%     99.85% # Reads before turning the bus around for writes
system.mem_ctrls.rdPerTurnAround::1024-2047           40      0.11%     99.96% # Reads before turning the bus around for writes
system.mem_ctrls.rdPerTurnAround::2048-3071            9      0.02%     99.99% # Reads before turning the bus around for writes
system.mem_ctrls.rdPerTurnAround::5120-6143            3      0.01%     99.99% # Reads before turning the bus around for writes
system.mem_ctrls.rdPerTurnAround::8192-9215            1      0.00%    100.00% # Reads before turning the bus around for writes
system.mem_ctrls.rdPerTurnAround::28672-29695            1      0.00%    100.00% # Reads before turning the bus around for writes
system.mem_ctrls.rdPerTurnAround::total         36988                       # Reads before turning the bus around for writes
system.mem_ctrls.wrPerTurnAround::samples        36988                       # Writes before turning the bus around for reads
system.mem_ctrls.wrPerTurnAround::mean      17.158349                       # Writes before turning the bus around for reads
system.mem_ctrls.wrPerTurnAround::gmean     17.126872                       # Writes before turning the bus around for reads
system.mem_ctrls.wrPerTurnAround::stdev      1.038549                       # Writes before turning the bus around for reads
system.mem_ctrls.wrPerTurnAround::16            15306     41.38%     41.38% # Writes before turning the bus around for reads
system.mem_ctrls.wrPerTurnAround::17             2624      7.09%     48.48% # Writes before turning the bus around for reads
system.mem_ctrls.wrPerTurnAround::18            17022     46.02%     94.50% # Writes before turning the bus around for reads
system.mem_ctrls.wrPerTurnAround::19             1969      5.32%     99.82% # Writes before turning the bus around for reads
system.mem_ctrls.wrPerTurnAround::20               65      0.18%     99.99% # Writes before turning the bus around for reads
system.mem_ctrls.wrPerTurnAround::21                2      0.01%    100.00% # Writes before turning the bus around for reads
system.mem_ctrls.wrPerTurnAround::total         36988                       # Writes before turning the bus around for reads
system.mem_ctrls.totQLat                  24488801000                       # Total ticks spent queuing
system.mem_ctrls.totMemAccLat             52443532250                       # Total ticks spent from burst creation until serviced by the DRAM
system.mem_ctrls.totBusLat                 7454595000                       # Total ticks spent in databus transfers
system.mem_ctrls.avgQLat                     16425.31                       # Average queueing delay per DRAM burst
system.mem_ctrls.avgBusLat                    5000.00                       # Average bus latency per DRAM burst
system.mem_ctrls.avgMemAccLat                35175.31                       # Average memory access latency per DRAM burst
system.mem_ctrls.avgRdBW                        85.34                       # Average DRAM read bandwidth in MiByte/s
system.mem_ctrls.avgWrBW                        36.33                       # Average achieved write bandwidth in MiByte/s
system.mem_ctrls.avgRdBWSys                     85.57                       # Average system read bandwidth in MiByte/s
system.mem_ctrls.avgWrBWSys                     36.34                       # Average system write bandwidth in MiByte/s
system.mem_ctrls.peakBW                      12800.00                       # Theoretical peak bandwidth in MiByte/s
system.mem_ctrls.busUtil                         0.95                       # Data bus utilization in percentage
system.mem_ctrls.busUtilRead                     0.67                       # Data bus utilization in percentage for reads
system.mem_ctrls.busUtilWrite                    0.28                       # Data bus utilization in percentage for writes
system.mem_ctrls.avgRdQLen                       1.00                       # Average read queue length when enqueuing
system.mem_ctrls.avgWrQLen                      26.00                       # Average write queue length when enqueuing
system.mem_ctrls.readRowHits                   616089                       # Number of row buffer hits during reads
system.mem_ctrls.writeRowHits                  231636                       # Number of row buffer hits during writes
system.mem_ctrls.readRowHitRate                 41.32                       # Row buffer hit rate for reads
system.mem_ctrls.writeRowHitRate                36.50                       # Row buffer hit rate for writes
system.mem_ctrls.avgGap                     524973.16                       # Average gap between requests
system.mem_ctrls.pageHitRate                    39.88                       # Row buffer hit rate, read and write combined
system.mem_ctrls_0.actEnergy               4837538160                       # Energy for activate commands per rank (pJ)
system.mem_ctrls_0.preEnergy               2639529750                       # Energy for precharge commands per rank (pJ)
system.mem_ctrls_0.readEnergy              5865514200                       # Energy for read commands per rank (pJ)
system.mem_ctrls_0.writeEnergy             2026522800                       # Energy for write commands per rank (pJ)
system.mem_ctrls_0.refreshEnergy          73025656080                       # Energy for refresh commands per rank (pJ)
system.mem_ctrls_0.actBackEnergy         343958298840                       # Energy for active background per rank (pJ)
system.mem_ctrls_0.preBackEnergy         369112939500                       # Energy for precharge background per rank (pJ)
system.mem_ctrls_0.totalEnergy           801465999330                       # Total energy per rank (pJ)
system.mem_ctrls_0.averagePower            716.841920                       # Core power per rank (mW)
system.mem_ctrls_0.memoryStateTime::IDLE 611987345500                       # Time in different power states
system.mem_ctrls_0.memoryStateTime::REF   37334180000                       # Time in different power states
system.mem_ctrls_0.memoryStateTime::PRE_PDN            0                       # Time in different power states
system.mem_ctrls_0.memoryStateTime::ACT  468729730750                       # Time in different power states
system.mem_ctrls_0.memoryStateTime::ACT_PDN            0                       # Time in different power states
system.mem_ctrls_1.actEnergy               4822985160                       # Energy for activate commands per rank (pJ)
system.mem_ctrls_1.preEnergy               2631589125                       # Energy for precharge commands per rank (pJ)
system.mem_ctrls_1.readEnergy              5763654000                       # Energy for read commands per rank (pJ)
system.mem_ctrls_1.writeEnergy             2086028640                       # Energy for write commands per rank (pJ)
system.mem_ctrls_1.refreshEnergy          73025656080                       # Energy for refresh commands per rank (pJ)
system.mem_ctrls_1.actBackEnergy         346215860505                       # Energy for active background per rank (pJ)
system.mem_ctrls_1.preBackEnergy         367132622250                       # Energy for precharge background per rank (pJ)
system.mem_ctrls_1.totalEnergy           801678395760                       # Total energy per rank (pJ)
system.mem_ctrls_1.averagePower            717.031890                       # Core power per rank (mW)
system.mem_ctrls_1.memoryStateTime::IDLE 608656128250                       # Time in different power states
system.mem_ctrls_1.memoryStateTime::REF   37334180000                       # Time in different power states
system.mem_ctrls_1.memoryStateTime::PRE_PDN            0                       # Time in different power states
system.mem_ctrls_1.memoryStateTime::ACT  472060948000                       # Time in different power states
system.mem_ctrls_1.memoryStateTime::ACT_PDN            0                       # Time in different power states
system.cpu_voltage_domain.voltage                   1                       # Voltage in Volts
system.cpu_clk_domain.clock                       500                       # Clock period in ticks
system.cpu.apic_clk_domain.clock                 8000                       # Clock period in ticks
system.cpu.workload.num_syscalls                   86                       # Number of system calls
system.cpu.numCycles                       2236114303                       # number of cpu cycles simulated
system.cpu.numWorkItemsStarted                      0                       # number of work items this cpu started
system.cpu.numWorkItemsCompleted                    0                       # number of work items this cpu completed
system.cpu.committedInsts                   500000001                       # Number of instructions committed
system.cpu.committedOps                     730450447                       # Number of ops (including micro ops) committed
system.cpu.num_int_alu_accesses             729688907                       # Number of integer alu accesses
system.cpu.num_fp_alu_accesses                    663                       # Number of float alu accesses
system.cpu.num_func_calls                     1453961                       # number of times a function call or return occured
system.cpu.num_conditional_control_insts     31770496                       # number of instructions that are conditional controls
system.cpu.num_int_insts                    729688907                       # number of integer instructions
system.cpu.num_fp_insts                           663                       # number of float instructions
system.cpu.num_int_register_reads          1698743410                       # number of times the integer registers were read
system.cpu.num_int_register_writes          621892952                       # number of times the integer registers were written
system.cpu.num_fp_register_reads                 1009                       # number of times the floating registers were read
system.cpu.num_fp_register_writes                 429                       # number of times the floating registers were written
system.cpu.num_cc_register_reads            180840558                       # number of times the CC registers were read
system.cpu.num_cc_register_writes           276245127                       # number of times the CC registers were written
system.cpu.num_mem_refs                     295985459                       # number of memory refs
system.cpu.num_load_insts                   225946750                       # Number of load instructions
system.cpu.num_store_insts                   70038709                       # Number of store instructions
system.cpu.num_idle_cycles                          0                       # Number of idle cycles
system.cpu.num_busy_cycles                 2236114303                       # Number of busy cycles
system.cpu.not_idle_fraction                        1                       # Percentage of non-idle cycles
system.cpu.idle_fraction                            0                       # Percentage of idle cycles
system.cpu.Branches                          37843296                       # Number of branches fetched
system.cpu.op_class::No_OpClass                 94739      0.01%      0.01% # Class of executed instruction
system.cpu.op_class::IntAlu                 434349070     59.46%     59.48% # Class of executed instruction
system.cpu.op_class::IntMult                    20662      0.00%     59.48% # Class of executed instruction
system.cpu.op_class::IntDiv                       119      0.00%     59.48% # Class of executed instruction
system.cpu.op_class::FloatAdd                     398      0.00%     59.48% # Class of executed instruction
system.cpu.op_class::FloatCmp                       0      0.00%     59.48% # Class of executed instruction
system.cpu.op_class::FloatCvt                       0      0.00%     59.48% # Class of executed instruction
system.cpu.op_class::FloatMult                      0      0.00%     59.48% # Class of executed instruction
system.cpu.op_class::FloatDiv                       0      0.00%     59.48% # Class of executed instruction
system.cpu.op_class::FloatSqrt                      0      0.00%     59.48% # Class of executed instruction
system.cpu.op_class::SimdAdd                        0      0.00%     59.48% # Class of executed instruction
system.cpu.op_class::SimdAddAcc                     0      0.00%     59.48% # Class of executed instruction
system.cpu.op_class::SimdAlu                        0      0.00%     59.48% # Class of executed instruction
system.cpu.op_class::SimdCmp                        0      0.00%     59.48% # Class of executed instruction
system.cpu.op_class::SimdCvt                        0      0.00%     59.48% # Class of executed instruction
system.cpu.op_class::SimdMisc                       0      0.00%     59.48% # Class of executed instruction
system.cpu.op_class::SimdMult                       0      0.00%     59.48% # Class of executed instruction
system.cpu.op_class::SimdMultAcc                    0      0.00%     59.48% # Class of executed instruction
system.cpu.op_class::SimdShift                      0      0.00%     59.48% # Class of executed instruction
system.cpu.op_class::SimdShiftAcc                   0      0.00%     59.48% # Class of executed instruction
system.cpu.op_class::SimdSqrt                       0      0.00%     59.48% # Class of executed instruction
system.cpu.op_class::SimdFloatAdd                   0      0.00%     59.48% # Class of executed instruction
system.cpu.op_class::SimdFloatAlu                   0      0.00%     59.48% # Class of executed instruction
system.cpu.op_class::SimdFloatCmp                   0      0.00%     59.48% # Class of executed instruction
system.cpu.op_class::SimdFloatCvt                   0      0.00%     59.48% # Class of executed instruction
system.cpu.op_class::SimdFloatDiv                   0      0.00%     59.48% # Class of executed instruction
system.cpu.op_class::SimdFloatMisc                  0      0.00%     59.48% # Class of executed instruction
system.cpu.op_class::SimdFloatMult                  0      0.00%     59.48% # Class of executed instruction
system.cpu.op_class::SimdFloatMultAcc               0      0.00%     59.48% # Class of executed instruction
system.cpu.op_class::SimdFloatSqrt                  0      0.00%     59.48% # Class of executed instruction
system.cpu.op_class::MemRead                225946750     30.93%     90.41% # Class of executed instruction
system.cpu.op_class::MemWrite                70038709      9.59%    100.00% # Class of executed instruction
system.cpu.op_class::IprAccess                      0      0.00%    100.00% # Class of executed instruction
system.cpu.op_class::InstPrefetch                   0      0.00%    100.00% # Class of executed instruction
system.cpu.op_class::total                  730450447                       # Class of executed instruction
system.cpu.dcache.tags.replacements           2042575                       # number of replacements
system.cpu.dcache.tags.tagsinuse          2042.491326                       # Cycle average of tags in use
system.cpu.dcache.tags.total_refs           293940844                       # Total number of references to valid blocks.
system.cpu.dcache.tags.sampled_refs           2044623                       # Sample count of references to valid blocks.
system.cpu.dcache.tags.avg_refs            143.762857                       # Average number of references to valid blocks.
system.cpu.dcache.tags.warmup_cycle        3526148500                       # Cycle when the warmup percentage was hit.
system.cpu.dcache.tags.occ_blocks::cpu.data  2042.491326                       # Average occupied blocks per requestor
system.cpu.dcache.tags.occ_percent::cpu.data     0.997310                       # Average percentage of cache occupancy
system.cpu.dcache.tags.occ_percent::total     0.997310                       # Average percentage of cache occupancy
system.cpu.dcache.tags.occ_task_id_blocks::1024         2048                       # Occupied blocks per task id
system.cpu.dcache.tags.age_task_id_blocks_1024::1            2                       # Occupied blocks per task id
system.cpu.dcache.tags.age_task_id_blocks_1024::2           16                       # Occupied blocks per task id
system.cpu.dcache.tags.age_task_id_blocks_1024::3         1420                       # Occupied blocks per task id
system.cpu.dcache.tags.age_task_id_blocks_1024::4          610                       # Occupied blocks per task id
system.cpu.dcache.tags.occ_task_id_percent::1024            1                       # Percentage of cache occupancy per task id
system.cpu.dcache.tags.tag_accesses         594015557                       # Number of tag accesses
system.cpu.dcache.tags.data_accesses        594015557                       # Number of data accesses
system.cpu.dcache.ReadReq_hits::cpu.data    224491119                       # number of ReadReq hits
system.cpu.dcache.ReadReq_hits::total       224491119                       # number of ReadReq hits
system.cpu.dcache.WriteReq_hits::cpu.data     69449725                       # number of WriteReq hits
system.cpu.dcache.WriteReq_hits::total       69449725                       # number of WriteReq hits
system.cpu.dcache.demand_hits::cpu.data     293940844                       # number of demand (read+write) hits
system.cpu.dcache.demand_hits::total        293940844                       # number of demand (read+write) hits
system.cpu.dcache.overall_hits::cpu.data    293940844                       # number of overall hits
system.cpu.dcache.overall_hits::total       293940844                       # number of overall hits
system.cpu.dcache.ReadReq_misses::cpu.data      1439254                       # number of ReadReq misses
system.cpu.dcache.ReadReq_misses::total       1439254                       # number of ReadReq misses
system.cpu.dcache.WriteReq_misses::cpu.data       588985                       # number of WriteReq misses
system.cpu.dcache.WriteReq_misses::total       588985                       # number of WriteReq misses
system.cpu.dcache.SoftPFReq_misses::cpu.data        16384                       # number of SoftPFReq misses
system.cpu.dcache.SoftPFReq_misses::total        16384                       # number of SoftPFReq misses
system.cpu.dcache.demand_misses::cpu.data      2028239                       # number of demand (read+write) misses
system.cpu.dcache.demand_misses::total        2028239                       # number of demand (read+write) misses
system.cpu.dcache.overall_misses::cpu.data      2044623                       # number of overall misses
system.cpu.dcache.overall_misses::total       2044623                       # number of overall misses
system.cpu.dcache.ReadReq_miss_latency::cpu.data  89660054500                       # number of ReadReq miss cycles
system.cpu.dcache.ReadReq_miss_latency::total  89660054500                       # number of ReadReq miss cycles
system.cpu.dcache.WriteReq_miss_latency::cpu.data  46828215500                       # number of WriteReq miss cycles
system.cpu.dcache.WriteReq_miss_latency::total  46828215500                       # number of WriteReq miss cycles
system.cpu.dcache.demand_miss_latency::cpu.data 136488270000                       # number of demand (read+write) miss cycles
system.cpu.dcache.demand_miss_latency::total 136488270000                       # number of demand (read+write) miss cycles
system.cpu.dcache.overall_miss_latency::cpu.data 136488270000                       # number of overall miss cycles
system.cpu.dcache.overall_miss_latency::total 136488270000                       # number of overall miss cycles
system.cpu.dcache.ReadReq_accesses::cpu.data    225930373                       # number of ReadReq accesses(hits+misses)
system.cpu.dcache.ReadReq_accesses::total    225930373                       # number of ReadReq accesses(hits+misses)
system.cpu.dcache.WriteReq_accesses::cpu.data     70038710                       # number of WriteReq accesses(hits+misses)
system.cpu.dcache.WriteReq_accesses::total     70038710                       # number of WriteReq accesses(hits+misses)
system.cpu.dcache.SoftPFReq_accesses::cpu.data        16384                       # number of SoftPFReq accesses(hits+misses)
system.cpu.dcache.SoftPFReq_accesses::total        16384                       # number of SoftPFReq accesses(hits+misses)
system.cpu.dcache.demand_accesses::cpu.data    295969083                       # number of demand (read+write) accesses
system.cpu.dcache.demand_accesses::total    295969083                       # number of demand (read+write) accesses
system.cpu.dcache.overall_accesses::cpu.data    295985467                       # number of overall (read+write) accesses
system.cpu.dcache.overall_accesses::total    295985467                       # number of overall (read+write) accesses
system.cpu.dcache.ReadReq_miss_rate::cpu.data     0.006370                       # miss rate for ReadReq accesses
system.cpu.dcache.ReadReq_miss_rate::total     0.006370                       # miss rate for ReadReq accesses
system.cpu.dcache.WriteReq_miss_rate::cpu.data     0.008409                       # miss rate for WriteReq accesses
system.cpu.dcache.WriteReq_miss_rate::total     0.008409                       # miss rate for WriteReq accesses
system.cpu.dcache.SoftPFReq_miss_rate::cpu.data            1                       # miss rate for SoftPFReq accesses
system.cpu.dcache.SoftPFReq_miss_rate::total            1                       # miss rate for SoftPFReq accesses
system.cpu.dcache.demand_miss_rate::cpu.data     0.006853                       # miss rate for demand accesses
system.cpu.dcache.demand_miss_rate::total     0.006853                       # miss rate for demand accesses
system.cpu.dcache.overall_miss_rate::cpu.data     0.006908                       # miss rate for overall accesses
system.cpu.dcache.overall_miss_rate::total     0.006908                       # miss rate for overall accesses
system.cpu.dcache.ReadReq_avg_miss_latency::cpu.data 62296.199628                       # average ReadReq miss latency
system.cpu.dcache.ReadReq_avg_miss_latency::total 62296.199628                       # average ReadReq miss latency
system.cpu.dcache.WriteReq_avg_miss_latency::cpu.data 79506.635144                       # average WriteReq miss latency
system.cpu.dcache.WriteReq_avg_miss_latency::total 79506.635144                       # average WriteReq miss latency
system.cpu.dcache.demand_avg_miss_latency::cpu.data 67293.977682                       # average overall miss latency
system.cpu.dcache.demand_avg_miss_latency::total 67293.977682                       # average overall miss latency
system.cpu.dcache.overall_avg_miss_latency::cpu.data 66754.736692                       # average overall miss latency
system.cpu.dcache.overall_avg_miss_latency::total 66754.736692                       # average overall miss latency
system.cpu.dcache.blocked_cycles::no_mshrs       288155                       # number of cycles access was blocked
system.cpu.dcache.blocked_cycles::no_targets            0                       # number of cycles access was blocked
system.cpu.dcache.blocked::no_mshrs              5070                       # number of cycles access was blocked
system.cpu.dcache.blocked::no_targets               0                       # number of cycles access was blocked
system.cpu.dcache.avg_blocked_cycles::no_mshrs    56.835306                       # average number of cycles each access was blocked
system.cpu.dcache.avg_blocked_cycles::no_targets          nan                       # average number of cycles each access was blocked
system.cpu.dcache.fast_writes                       0                       # number of fast writes performed
system.cpu.dcache.cache_copies                      0                       # number of cache copies performed
system.cpu.dcache.writebacks::writebacks       900460                       # number of writebacks
system.cpu.dcache.writebacks::total            900460                       # number of writebacks
system.cpu.dcache.ReadReq_mshr_misses::cpu.data      1439254                       # number of ReadReq MSHR misses
system.cpu.dcache.ReadReq_mshr_misses::total      1439254                       # number of ReadReq MSHR misses
system.cpu.dcache.WriteReq_mshr_misses::cpu.data       588985                       # number of WriteReq MSHR misses
system.cpu.dcache.WriteReq_mshr_misses::total       588985                       # number of WriteReq MSHR misses
system.cpu.dcache.SoftPFReq_mshr_misses::cpu.data        16384                       # number of SoftPFReq MSHR misses
system.cpu.dcache.SoftPFReq_mshr_misses::total        16384                       # number of SoftPFReq MSHR misses
system.cpu.dcache.demand_mshr_misses::cpu.data      2028239                       # number of demand (read+write) MSHR misses
system.cpu.dcache.demand_mshr_misses::total      2028239                       # number of demand (read+write) MSHR misses
system.cpu.dcache.overall_mshr_misses::cpu.data      2044623                       # number of overall MSHR misses
system.cpu.dcache.overall_mshr_misses::total      2044623                       # number of overall MSHR misses
system.cpu.dcache.ReadReq_mshr_miss_latency::cpu.data  88220800500                       # number of ReadReq MSHR miss cycles
system.cpu.dcache.ReadReq_mshr_miss_latency::total  88220800500                       # number of ReadReq MSHR miss cycles
system.cpu.dcache.WriteReq_mshr_miss_latency::cpu.data  46239230500                       # number of WriteReq MSHR miss cycles
system.cpu.dcache.WriteReq_mshr_miss_latency::total  46239230500                       # number of WriteReq MSHR miss cycles
system.cpu.dcache.SoftPFReq_mshr_miss_latency::cpu.data   1389447461                       # number of SoftPFReq MSHR miss cycles
system.cpu.dcache.SoftPFReq_mshr_miss_latency::total   1389447461                       # number of SoftPFReq MSHR miss cycles
system.cpu.dcache.demand_mshr_miss_latency::cpu.data 134460031000                       # number of demand (read+write) MSHR miss cycles
system.cpu.dcache.demand_mshr_miss_latency::total 134460031000                       # number of demand (read+write) MSHR miss cycles
system.cpu.dcache.overall_mshr_miss_latency::cpu.data 135849478461                       # number of overall MSHR miss cycles
system.cpu.dcache.overall_mshr_miss_latency::total 135849478461                       # number of overall MSHR miss cycles
system.cpu.dcache.ReadReq_mshr_miss_rate::cpu.data     0.006370                       # mshr miss rate for ReadReq accesses
system.cpu.dcache.ReadReq_mshr_miss_rate::total     0.006370                       # mshr miss rate for ReadReq accesses
system.cpu.dcache.WriteReq_mshr_miss_rate::cpu.data     0.008409                       # mshr miss rate for WriteReq accesses
system.cpu.dcache.WriteReq_mshr_miss_rate::total     0.008409                       # mshr miss rate for WriteReq accesses
system.cpu.dcache.SoftPFReq_mshr_miss_rate::cpu.data            1                       # mshr miss rate for SoftPFReq accesses
system.cpu.dcache.SoftPFReq_mshr_miss_rate::total            1                       # mshr miss rate for SoftPFReq accesses
system.cpu.dcache.demand_mshr_miss_rate::cpu.data     0.006853                       # mshr miss rate for demand accesses
system.cpu.dcache.demand_mshr_miss_rate::total     0.006853                       # mshr miss rate for demand accesses
system.cpu.dcache.overall_mshr_miss_rate::cpu.data     0.006908                       # mshr miss rate for overall accesses
system.cpu.dcache.overall_mshr_miss_rate::total     0.006908                       # mshr miss rate for overall accesses
system.cpu.dcache.ReadReq_avg_mshr_miss_latency::cpu.data 61296.199628                       # average ReadReq mshr miss latency
system.cpu.dcache.ReadReq_avg_mshr_miss_latency::total 61296.199628                       # average ReadReq mshr miss latency
system.cpu.dcache.WriteReq_avg_mshr_miss_latency::cpu.data 78506.635144                       # average WriteReq mshr miss latency
system.cpu.dcache.WriteReq_avg_mshr_miss_latency::total 78506.635144                       # average WriteReq mshr miss latency
system.cpu.dcache.SoftPFReq_avg_mshr_miss_latency::cpu.data 84805.142883                       # average SoftPFReq mshr miss latency
system.cpu.dcache.SoftPFReq_avg_mshr_miss_latency::total 84805.142883                       # average SoftPFReq mshr miss latency
system.cpu.dcache.demand_avg_mshr_miss_latency::cpu.data 66293.977682                       # average overall mshr miss latency
system.cpu.dcache.demand_avg_mshr_miss_latency::total 66293.977682                       # average overall mshr miss latency
system.cpu.dcache.overall_avg_mshr_miss_latency::cpu.data 66442.311595                       # average overall mshr miss latency
system.cpu.dcache.overall_avg_mshr_miss_latency::total 66442.311595                       # average overall mshr miss latency
system.cpu.dcache.no_allocate_misses                0                       # Number of misses that were no-allocate
system.cpu.dtb_walker_cache.tags.replacements            0                       # number of replacements
system.cpu.dtb_walker_cache.tags.tagsinuse            0                       # Cycle average of tags in use
system.cpu.dtb_walker_cache.tags.total_refs            0                       # Total number of references to valid blocks.
system.cpu.dtb_walker_cache.tags.sampled_refs            0                       # Sample count of references to valid blocks.
system.cpu.dtb_walker_cache.tags.avg_refs          nan                       # Average number of references to valid blocks.
system.cpu.dtb_walker_cache.tags.warmup_cycle            0                       # Cycle when the warmup percentage was hit.
system.cpu.dtb_walker_cache.tags.tag_accesses            0                       # Number of tag accesses
system.cpu.dtb_walker_cache.tags.data_accesses            0                       # Number of data accesses
system.cpu.dtb_walker_cache.blocked_cycles::no_mshrs            0                       # number of cycles access was blocked
system.cpu.dtb_walker_cache.blocked_cycles::no_targets            0                       # number of cycles access was blocked
system.cpu.dtb_walker_cache.blocked::no_mshrs            0                       # number of cycles access was blocked
system.cpu.dtb_walker_cache.blocked::no_targets            0                       # number of cycles access was blocked
system.cpu.dtb_walker_cache.avg_blocked_cycles::no_mshrs          nan                       # average number of cycles each access was blocked
system.cpu.dtb_walker_cache.avg_blocked_cycles::no_targets          nan                       # average number of cycles each access was blocked
system.cpu.dtb_walker_cache.fast_writes             0                       # number of fast writes performed
system.cpu.dtb_walker_cache.cache_copies            0                       # number of cache copies performed
system.cpu.dtb_walker_cache.no_allocate_misses            0                       # Number of misses that were no-allocate
system.cpu.icache.tags.replacements                45                       # number of replacements
system.cpu.icache.tags.tagsinuse           663.175614                       # Cycle average of tags in use
system.cpu.icache.tags.total_refs           687396869                       # Total number of references to valid blocks.
system.cpu.icache.tags.sampled_refs               994                       # Sample count of references to valid blocks.
system.cpu.icache.tags.avg_refs          691546.145875                       # Average number of references to valid blocks.
system.cpu.icache.tags.warmup_cycle                 0                       # Cycle when the warmup percentage was hit.
system.cpu.icache.tags.occ_blocks::cpu.inst   663.175614                       # Average occupied blocks per requestor
system.cpu.icache.tags.occ_percent::cpu.inst     0.323816                       # Average percentage of cache occupancy
system.cpu.icache.tags.occ_percent::total     0.323816                       # Average percentage of cache occupancy
system.cpu.icache.tags.occ_task_id_blocks::1024          949                       # Occupied blocks per task id
system.cpu.icache.tags.age_task_id_blocks_1024::1            7                       # Occupied blocks per task id
system.cpu.icache.tags.age_task_id_blocks_1024::3           25                       # Occupied blocks per task id
system.cpu.icache.tags.age_task_id_blocks_1024::4          917                       # Occupied blocks per task id
system.cpu.icache.tags.occ_task_id_percent::1024     0.463379                       # Percentage of cache occupancy per task id
system.cpu.icache.tags.tag_accesses        1374796720                       # Number of tag accesses
system.cpu.icache.tags.data_accesses       1374796720                       # Number of data accesses
system.cpu.icache.ReadReq_hits::cpu.inst    687396869                       # number of ReadReq hits
system.cpu.icache.ReadReq_hits::total       687396869                       # number of ReadReq hits
system.cpu.icache.demand_hits::cpu.inst     687396869                       # number of demand (read+write) hits
system.cpu.icache.demand_hits::total        687396869                       # number of demand (read+write) hits
system.cpu.icache.overall_hits::cpu.inst    687396869                       # number of overall hits
system.cpu.icache.overall_hits::total       687396869                       # number of overall hits
system.cpu.icache.ReadReq_misses::cpu.inst          994                       # number of ReadReq misses
system.cpu.icache.ReadReq_misses::total           994                       # number of ReadReq misses
system.cpu.icache.demand_misses::cpu.inst          994                       # number of demand (read+write) misses
system.cpu.icache.demand_misses::total            994                       # number of demand (read+write) misses
system.cpu.icache.overall_misses::cpu.inst          994                       # number of overall misses
system.cpu.icache.overall_misses::total           994                       # number of overall misses
system.cpu.icache.ReadReq_miss_latency::cpu.inst     78241500                       # number of ReadReq miss cycles
system.cpu.icache.ReadReq_miss_latency::total     78241500                       # number of ReadReq miss cycles
system.cpu.icache.demand_miss_latency::cpu.inst     78241500                       # number of demand (read+write) miss cycles
system.cpu.icache.demand_miss_latency::total     78241500                       # number of demand (read+write) miss cycles
system.cpu.icache.overall_miss_latency::cpu.inst     78241500                       # number of overall miss cycles
system.cpu.icache.overall_miss_latency::total     78241500                       # number of overall miss cycles
system.cpu.icache.ReadReq_accesses::cpu.inst    687397863                       # number of ReadReq accesses(hits+misses)
system.cpu.icache.ReadReq_accesses::total    687397863                       # number of ReadReq accesses(hits+misses)
system.cpu.icache.demand_accesses::cpu.inst    687397863                       # number of demand (read+write) accesses
system.cpu.icache.demand_accesses::total    687397863                       # number of demand (read+write) accesses
system.cpu.icache.overall_accesses::cpu.inst    687397863                       # number of overall (read+write) accesses
system.cpu.icache.overall_accesses::total    687397863                       # number of overall (read+write) accesses
system.cpu.icache.ReadReq_miss_rate::cpu.inst     0.000001                       # miss rate for ReadReq accesses
system.cpu.icache.ReadReq_miss_rate::total     0.000001                       # miss rate for ReadReq accesses
system.cpu.icache.demand_miss_rate::cpu.inst     0.000001                       # miss rate for demand accesses
system.cpu.icache.demand_miss_rate::total     0.000001                       # miss rate for demand accesses
system.cpu.icache.overall_miss_rate::cpu.inst     0.000001                       # miss rate for overall accesses
system.cpu.icache.overall_miss_rate::total     0.000001                       # miss rate for overall accesses
system.cpu.icache.ReadReq_avg_miss_latency::cpu.inst 78713.782696                       # average ReadReq miss latency
system.cpu.icache.ReadReq_avg_miss_latency::total 78713.782696                       # average ReadReq miss latency
system.cpu.icache.demand_avg_miss_latency::cpu.inst 78713.782696                       # average overall miss latency
system.cpu.icache.demand_avg_miss_latency::total 78713.782696                       # average overall miss latency
system.cpu.icache.overall_avg_miss_latency::cpu.inst 78713.782696                       # average overall miss latency
system.cpu.icache.overall_avg_miss_latency::total 78713.782696                       # average overall miss latency
system.cpu.icache.blocked_cycles::no_mshrs            0                       # number of cycles access was blocked
system.cpu.icache.blocked_cycles::no_targets            0                       # number of cycles access was blocked
system.cpu.icache.blocked::no_mshrs                 0                       # number of cycles access was blocked
system.cpu.icache.blocked::no_targets               0                       # number of cycles access was blocked
system.cpu.icache.avg_blocked_cycles::no_mshrs          nan                       # average number of cycles each access was blocked
system.cpu.icache.avg_blocked_cycles::no_targets          nan                       # average number of cycles each access was blocked
system.cpu.icache.fast_writes                       0                       # number of fast writes performed
system.cpu.icache.cache_copies                      0                       # number of cache copies performed
system.cpu.icache.writebacks::writebacks           45                       # number of writebacks
system.cpu.icache.writebacks::total                45                       # number of writebacks
system.cpu.icache.ReadReq_mshr_misses::cpu.inst          994                       # number of ReadReq MSHR misses
system.cpu.icache.ReadReq_mshr_misses::total          994                       # number of ReadReq MSHR misses
system.cpu.icache.demand_mshr_misses::cpu.inst          994                       # number of demand (read+write) MSHR misses
system.cpu.icache.demand_mshr_misses::total          994                       # number of demand (read+write) MSHR misses
system.cpu.icache.overall_mshr_misses::cpu.inst          994                       # number of overall MSHR misses
system.cpu.icache.overall_mshr_misses::total          994                       # number of overall MSHR misses
system.cpu.icache.ReadReq_mshr_miss_latency::cpu.inst     77247500                       # number of ReadReq MSHR miss cycles
system.cpu.icache.ReadReq_mshr_miss_latency::total     77247500                       # number of ReadReq MSHR miss cycles
system.cpu.icache.demand_mshr_miss_latency::cpu.inst     77247500                       # number of demand (read+write) MSHR miss cycles
system.cpu.icache.demand_mshr_miss_latency::total     77247500                       # number of demand (read+write) MSHR miss cycles
system.cpu.icache.overall_mshr_miss_latency::cpu.inst     77247500                       # number of overall MSHR miss cycles
system.cpu.icache.overall_mshr_miss_latency::total     77247500                       # number of overall MSHR miss cycles
system.cpu.icache.ReadReq_mshr_miss_rate::cpu.inst     0.000001                       # mshr miss rate for ReadReq accesses
system.cpu.icache.ReadReq_mshr_miss_rate::total     0.000001                       # mshr miss rate for ReadReq accesses
system.cpu.icache.demand_mshr_miss_rate::cpu.inst     0.000001                       # mshr miss rate for demand accesses
system.cpu.icache.demand_mshr_miss_rate::total     0.000001                       # mshr miss rate for demand accesses
system.cpu.icache.overall_mshr_miss_rate::cpu.inst     0.000001                       # mshr miss rate for overall accesses
system.cpu.icache.overall_mshr_miss_rate::total     0.000001                       # mshr miss rate for overall accesses
system.cpu.icache.ReadReq_avg_mshr_miss_latency::cpu.inst 77713.782696                       # average ReadReq mshr miss latency
system.cpu.icache.ReadReq_avg_mshr_miss_latency::total 77713.782696                       # average ReadReq mshr miss latency
system.cpu.icache.demand_avg_mshr_miss_latency::cpu.inst 77713.782696                       # average overall mshr miss latency
system.cpu.icache.demand_avg_mshr_miss_latency::total 77713.782696                       # average overall mshr miss latency
system.cpu.icache.overall_avg_mshr_miss_latency::cpu.inst 77713.782696                       # average overall mshr miss latency
system.cpu.icache.overall_avg_mshr_miss_latency::total 77713.782696                       # average overall mshr miss latency
system.cpu.icache.no_allocate_misses                0                       # Number of misses that were no-allocate
system.cpu.itb_walker_cache.tags.replacements            0                       # number of replacements
system.cpu.itb_walker_cache.tags.tagsinuse            0                       # Cycle average of tags in use
system.cpu.itb_walker_cache.tags.total_refs            0                       # Total number of references to valid blocks.
system.cpu.itb_walker_cache.tags.sampled_refs            0                       # Sample count of references to valid blocks.
system.cpu.itb_walker_cache.tags.avg_refs          nan                       # Average number of references to valid blocks.
system.cpu.itb_walker_cache.tags.warmup_cycle            0                       # Cycle when the warmup percentage was hit.
system.cpu.itb_walker_cache.tags.tag_accesses            0                       # Number of tag accesses
system.cpu.itb_walker_cache.tags.data_accesses            0                       # Number of data accesses
system.cpu.itb_walker_cache.blocked_cycles::no_mshrs            0                       # number of cycles access was blocked
system.cpu.itb_walker_cache.blocked_cycles::no_targets            0                       # number of cycles access was blocked
system.cpu.itb_walker_cache.blocked::no_mshrs            0                       # number of cycles access was blocked
system.cpu.itb_walker_cache.blocked::no_targets            0                       # number of cycles access was blocked
system.cpu.itb_walker_cache.avg_blocked_cycles::no_mshrs          nan                       # average number of cycles each access was blocked
system.cpu.itb_walker_cache.avg_blocked_cycles::no_targets          nan                       # average number of cycles each access was blocked
system.cpu.itb_walker_cache.fast_writes             0                       # number of fast writes performed
system.cpu.itb_walker_cache.cache_copies            0                       # number of cache copies performed
system.cpu.itb_walker_cache.no_allocate_misses            0                       # Number of misses that were no-allocate
system.l2.tags.replacements                   1569101                       # number of replacements
system.l2.tags.tagsinuse                  3580.987069                       # Cycle average of tags in use
system.l2.tags.total_refs                     1496912                       # Total number of references to valid blocks.
system.l2.tags.sampled_refs                   1572893                       # Sample count of references to valid blocks.
system.l2.tags.avg_refs                      0.951693                       # Average number of references to valid blocks.
system.l2.tags.warmup_cycle                3661617000                       # Cycle when the warmup percentage was hit.
system.l2.tags.occ_blocks::writebacks     1197.536582                       # Average occupied blocks per requestor
system.l2.tags.occ_blocks::cpu.inst          2.401710                       # Average occupied blocks per requestor
system.l2.tags.occ_blocks::cpu.data       2381.048776                       # Average occupied blocks per requestor
system.l2.tags.occ_percent::writebacks       0.292367                       # Average percentage of cache occupancy
system.l2.tags.occ_percent::cpu.inst         0.000586                       # Average percentage of cache occupancy
system.l2.tags.occ_percent::cpu.data         0.581311                       # Average percentage of cache occupancy
system.l2.tags.occ_percent::total            0.874264                       # Average percentage of cache occupancy
system.l2.tags.occ_task_id_blocks::1024          3792                       # Occupied blocks per task id
system.l2.tags.age_task_id_blocks_1024::1            9                       # Occupied blocks per task id
system.l2.tags.age_task_id_blocks_1024::2           11                       # Occupied blocks per task id
system.l2.tags.age_task_id_blocks_1024::3         1360                       # Occupied blocks per task id
system.l2.tags.age_task_id_blocks_1024::4         2412                       # Occupied blocks per task id
system.l2.tags.occ_task_id_percent::1024     0.925781                       # Percentage of cache occupancy per task id
system.l2.tags.tag_accesses                   6250114                       # Number of tag accesses
system.l2.tags.data_accesses                  6250114                       # Number of data accesses
system.l2.WritebackDirty_hits::writebacks       900460                       # number of WritebackDirty hits
system.l2.WritebackDirty_hits::total           900460                       # number of WritebackDirty hits
system.l2.WritebackClean_hits::writebacks           45                       # number of WritebackClean hits
system.l2.WritebackClean_hits::total               45                       # number of WritebackClean hits
system.l2.ReadExReq_hits::cpu.data              80490                       # number of ReadExReq hits
system.l2.ReadExReq_hits::total                 80490                       # number of ReadExReq hits
system.l2.ReadCleanReq_hits::cpu.inst               1                       # number of ReadCleanReq hits
system.l2.ReadCleanReq_hits::total                  1                       # number of ReadCleanReq hits
system.l2.ReadSharedReq_hits::cpu.data         470231                       # number of ReadSharedReq hits
system.l2.ReadSharedReq_hits::total            470231                       # number of ReadSharedReq hits
system.l2.demand_hits::cpu.inst                     1                       # number of demand (read+write) hits
system.l2.demand_hits::cpu.data                550721                       # number of demand (read+write) hits
system.l2.demand_hits::total                   550722                       # number of demand (read+write) hits
system.l2.overall_hits::cpu.inst                    1                       # number of overall hits
system.l2.overall_hits::cpu.data               550721                       # number of overall hits
system.l2.overall_hits::total                  550722                       # number of overall hits
system.l2.ReadExReq_misses::cpu.data           508495                       # number of ReadExReq misses
system.l2.ReadExReq_misses::total              508495                       # number of ReadExReq misses
system.l2.ReadCleanReq_misses::cpu.inst           993                       # number of ReadCleanReq misses
system.l2.ReadCleanReq_misses::total              993                       # number of ReadCleanReq misses
system.l2.ReadSharedReq_misses::cpu.data       985407                       # number of ReadSharedReq misses
system.l2.ReadSharedReq_misses::total          985407                       # number of ReadSharedReq misses
system.l2.demand_misses::cpu.inst                 993                       # number of demand (read+write) misses
system.l2.demand_misses::cpu.data             1493902                       # number of demand (read+write) misses
system.l2.demand_misses::total                1494895                       # number of demand (read+write) misses
system.l2.overall_misses::cpu.inst                993                       # number of overall misses
system.l2.overall_misses::cpu.data            1493902                       # number of overall misses
system.l2.overall_misses::total               1494895                       # number of overall misses
system.l2.ReadExReq_miss_latency::cpu.data  44510607000                       # number of ReadExReq miss cycles
system.l2.ReadExReq_miss_latency::total   44510607000                       # number of ReadExReq miss cycles
system.l2.ReadCleanReq_miss_latency::cpu.inst     75744500                       # number of ReadCleanReq miss cycles
system.l2.ReadCleanReq_miss_latency::total     75744500                       # number of ReadCleanReq miss cycles
system.l2.ReadSharedReq_miss_latency::cpu.data  82489285000                       # number of ReadSharedReq miss cycles
system.l2.ReadSharedReq_miss_latency::total  82489285000                       # number of ReadSharedReq miss cycles
system.l2.demand_miss_latency::cpu.inst      75744500                       # number of demand (read+write) miss cycles
system.l2.demand_miss_latency::cpu.data  126999892000                       # number of demand (read+write) miss cycles
system.l2.demand_miss_latency::total     127075636500                       # number of demand (read+write) miss cycles
system.l2.overall_miss_latency::cpu.inst     75744500                       # number of overall miss cycles
system.l2.overall_miss_latency::cpu.data 126999892000                       # number of overall miss cycles
system.l2.overall_miss_latency::total    127075636500                       # number of overall miss cycles
system.l2.WritebackDirty_accesses::writebacks       900460                       # number of WritebackDirty accesses(hits+misses)
system.l2.WritebackDirty_accesses::total       900460                       # number of WritebackDirty accesses(hits+misses)
system.l2.WritebackClean_accesses::writebacks           45                       # number of WritebackClean accesses(hits+misses)
system.l2.WritebackClean_accesses::total           45                       # number of WritebackClean accesses(hits+misses)
system.l2.ReadExReq_accesses::cpu.data         588985                       # number of ReadExReq accesses(hits+misses)
system.l2.ReadExReq_accesses::total            588985                       # number of ReadExReq accesses(hits+misses)
system.l2.ReadCleanReq_accesses::cpu.inst          994                       # number of ReadCleanReq accesses(hits+misses)
system.l2.ReadCleanReq_accesses::total            994                       # number of ReadCleanReq accesses(hits+misses)
system.l2.ReadSharedReq_accesses::cpu.data      1455638                       # number of ReadSharedReq accesses(hits+misses)
system.l2.ReadSharedReq_accesses::total       1455638                       # number of ReadSharedReq accesses(hits+misses)
system.l2.demand_accesses::cpu.inst               994                       # number of demand (read+write) accesses
system.l2.demand_accesses::cpu.data           2044623                       # number of demand (read+write) accesses
system.l2.demand_accesses::total              2045617                       # number of demand (read+write) accesses
system.l2.overall_accesses::cpu.inst              994                       # number of overall (read+write) accesses
system.l2.overall_accesses::cpu.data          2044623                       # number of overall (read+write) accesses
system.l2.overall_accesses::total             2045617                       # number of overall (read+write) accesses
system.l2.ReadExReq_miss_rate::cpu.data      0.863341                       # miss rate for ReadExReq accesses
system.l2.ReadExReq_miss_rate::total         0.863341                       # miss rate for ReadExReq accesses
system.l2.ReadCleanReq_miss_rate::cpu.inst     0.998994                       # miss rate for ReadCleanReq accesses
system.l2.ReadCleanReq_miss_rate::total      0.998994                       # miss rate for ReadCleanReq accesses
system.l2.ReadSharedReq_miss_rate::cpu.data     0.676959                       # miss rate for ReadSharedReq accesses
system.l2.ReadSharedReq_miss_rate::total     0.676959                       # miss rate for ReadSharedReq accesses
system.l2.demand_miss_rate::cpu.inst         0.998994                       # miss rate for demand accesses
system.l2.demand_miss_rate::cpu.data         0.730649                       # miss rate for demand accesses
system.l2.demand_miss_rate::total            0.730780                       # miss rate for demand accesses
system.l2.overall_miss_rate::cpu.inst        0.998994                       # miss rate for overall accesses
system.l2.overall_miss_rate::cpu.data        0.730649                       # miss rate for overall accesses
system.l2.overall_miss_rate::total           0.730780                       # miss rate for overall accesses
system.l2.ReadExReq_avg_miss_latency::cpu.data 87534.011151                       # average ReadExReq miss latency
system.l2.ReadExReq_avg_miss_latency::total 87534.011151                       # average ReadExReq miss latency
system.l2.ReadCleanReq_avg_miss_latency::cpu.inst 76278.449144                       # average ReadCleanReq miss latency
system.l2.ReadCleanReq_avg_miss_latency::total 76278.449144                       # average ReadCleanReq miss latency
system.l2.ReadSharedReq_avg_miss_latency::cpu.data 83710.877840                       # average ReadSharedReq miss latency
system.l2.ReadSharedReq_avg_miss_latency::total 83710.877840                       # average ReadSharedReq miss latency
system.l2.demand_avg_miss_latency::cpu.inst 76278.449144                       # average overall miss latency
system.l2.demand_avg_miss_latency::cpu.data 85012.197587                       # average overall miss latency
system.l2.demand_avg_miss_latency::total 85006.396101                       # average overall miss latency
system.l2.overall_avg_miss_latency::cpu.inst 76278.449144                       # average overall miss latency
system.l2.overall_avg_miss_latency::cpu.data 85012.197587                       # average overall miss latency
system.l2.overall_avg_miss_latency::total 85006.396101                       # average overall miss latency
system.l2.blocked_cycles::no_mshrs                  0                       # number of cycles access was blocked
system.l2.blocked_cycles::no_targets                0                       # number of cycles access was blocked
system.l2.blocked::no_mshrs                         0                       # number of cycles access was blocked
system.l2.blocked::no_targets                       0                       # number of cycles access was blocked
system.l2.avg_blocked_cycles::no_mshrs            nan                       # average number of cycles each access was blocked
system.l2.avg_blocked_cycles::no_targets          nan                       # average number of cycles each access was blocked
system.l2.fast_writes                               0                       # number of fast writes performed
system.l2.cache_copies                              0                       # number of cache copies performed
system.l2.writebacks::writebacks               634784                       # number of writebacks
system.l2.writebacks::total                    634784                       # number of writebacks
system.l2.CleanEvict_mshr_misses::writebacks       429446                       # number of CleanEvict MSHR misses
system.l2.CleanEvict_mshr_misses::total        429446                       # number of CleanEvict MSHR misses
system.l2.ReadExReq_mshr_misses::cpu.data       508495                       # number of ReadExReq MSHR misses
system.l2.ReadExReq_mshr_misses::total         508495                       # number of ReadExReq MSHR misses
system.l2.ReadCleanReq_mshr_misses::cpu.inst          993                       # number of ReadCleanReq MSHR misses
system.l2.ReadCleanReq_mshr_misses::total          993                       # number of ReadCleanReq MSHR misses
system.l2.ReadSharedReq_mshr_misses::cpu.data       985407                       # number of ReadSharedReq MSHR misses
system.l2.ReadSharedReq_mshr_misses::total       985407                       # number of ReadSharedReq MSHR misses
system.l2.demand_mshr_misses::cpu.inst            993                       # number of demand (read+write) MSHR misses
system.l2.demand_mshr_misses::cpu.data        1493902                       # number of demand (read+write) MSHR misses
system.l2.demand_mshr_misses::total           1494895                       # number of demand (read+write) MSHR misses
system.l2.overall_mshr_misses::cpu.inst           993                       # number of overall MSHR misses
system.l2.overall_mshr_misses::cpu.data       1493902                       # number of overall MSHR misses
system.l2.overall_mshr_misses::total          1494895                       # number of overall MSHR misses
system.l2.ReadExReq_mshr_miss_latency::cpu.data  39425657000                       # number of ReadExReq MSHR miss cycles
system.l2.ReadExReq_mshr_miss_latency::total  39425657000                       # number of ReadExReq MSHR miss cycles
system.l2.ReadCleanReq_mshr_miss_latency::cpu.inst     65814500                       # number of ReadCleanReq MSHR miss cycles
system.l2.ReadCleanReq_mshr_miss_latency::total     65814500                       # number of ReadCleanReq MSHR miss cycles
system.l2.ReadSharedReq_mshr_miss_latency::cpu.data  72635215000                       # number of ReadSharedReq MSHR miss cycles
system.l2.ReadSharedReq_mshr_miss_latency::total  72635215000                       # number of ReadSharedReq MSHR miss cycles
system.l2.demand_mshr_miss_latency::cpu.inst     65814500                       # number of demand (read+write) MSHR miss cycles
system.l2.demand_mshr_miss_latency::cpu.data 112060872000                       # number of demand (read+write) MSHR miss cycles
system.l2.demand_mshr_miss_latency::total 112126686500                       # number of demand (read+write) MSHR miss cycles
system.l2.overall_mshr_miss_latency::cpu.inst     65814500                       # number of overall MSHR miss cycles
system.l2.overall_mshr_miss_latency::cpu.data 112060872000                       # number of overall MSHR miss cycles
system.l2.overall_mshr_miss_latency::total 112126686500                       # number of overall MSHR miss cycles
system.l2.CleanEvict_mshr_miss_rate::writebacks          inf                       # mshr miss rate for CleanEvict accesses
system.l2.CleanEvict_mshr_miss_rate::total          inf                       # mshr miss rate for CleanEvict accesses
system.l2.ReadExReq_mshr_miss_rate::cpu.data     0.863341                       # mshr miss rate for ReadExReq accesses
system.l2.ReadExReq_mshr_miss_rate::total     0.863341                       # mshr miss rate for ReadExReq accesses
system.l2.ReadCleanReq_mshr_miss_rate::cpu.inst     0.998994                       # mshr miss rate for ReadCleanReq accesses
system.l2.ReadCleanReq_mshr_miss_rate::total     0.998994                       # mshr miss rate for ReadCleanReq accesses
system.l2.ReadSharedReq_mshr_miss_rate::cpu.data     0.676959                       # mshr miss rate for ReadSharedReq accesses
system.l2.ReadSharedReq_mshr_miss_rate::total     0.676959                       # mshr miss rate for ReadSharedReq accesses
system.l2.demand_mshr_miss_rate::cpu.inst     0.998994                       # mshr miss rate for demand accesses
system.l2.demand_mshr_miss_rate::cpu.data     0.730649                       # mshr miss rate for demand accesses
system.l2.demand_mshr_miss_rate::total       0.730780                       # mshr miss rate for demand accesses
system.l2.overall_mshr_miss_rate::cpu.inst     0.998994                       # mshr miss rate for overall accesses
system.l2.overall_mshr_miss_rate::cpu.data     0.730649                       # mshr miss rate for overall accesses
system.l2.overall_mshr_miss_rate::total      0.730780                       # mshr miss rate for overall accesses
system.l2.ReadExReq_avg_mshr_miss_latency::cpu.data 77534.011151                       # average ReadExReq mshr miss latency
system.l2.ReadExReq_avg_mshr_miss_latency::total 77534.011151                       # average ReadExReq mshr miss latency
system.l2.ReadCleanReq_avg_mshr_miss_latency::cpu.inst 66278.449144                       # average ReadCleanReq mshr miss latency
system.l2.ReadCleanReq_avg_mshr_miss_latency::total 66278.449144                       # average ReadCleanReq mshr miss latency
system.l2.ReadSharedReq_avg_mshr_miss_latency::cpu.data 73710.877840                       # average ReadSharedReq mshr miss latency
system.l2.ReadSharedReq_avg_mshr_miss_latency::total 73710.877840                       # average ReadSharedReq mshr miss latency
system.l2.demand_avg_mshr_miss_latency::cpu.inst 66278.449144                       # average overall mshr miss latency
system.l2.demand_avg_mshr_miss_latency::cpu.data 75012.197587                       # average overall mshr miss latency
system.l2.demand_avg_mshr_miss_latency::total 75006.396101                       # average overall mshr miss latency
system.l2.overall_avg_mshr_miss_latency::cpu.inst 66278.449144                       # average overall mshr miss latency
system.l2.overall_avg_mshr_miss_latency::cpu.data 75012.197587                       # average overall mshr miss latency
system.l2.overall_avg_mshr_miss_latency::total 75006.396101                       # average overall mshr miss latency
system.l2.no_allocate_misses                        0                       # Number of misses that were no-allocate
system.membus.trans_dist::ReadResp             986400                       # Transaction distribution
system.membus.trans_dist::WritebackDirty       634784                       # Transaction distribution
system.membus.trans_dist::CleanEvict           854910                       # Transaction distribution
system.membus.trans_dist::ReadExReq            508495                       # Transaction distribution
system.membus.trans_dist::ReadExResp           508495                       # Transaction distribution
system.membus.trans_dist::ReadSharedReq        986400                       # Transaction distribution
system.membus.pkt_count_system.l2.mem_side::system.mem_ctrls.port      4479484                       # Packet count per connected master and slave (bytes)
system.membus.pkt_count_system.l2.mem_side::total      4479484                       # Packet count per connected master and slave (bytes)
system.membus.pkt_count::total                4479484                       # Packet count per connected master and slave (bytes)
system.membus.pkt_size_system.l2.mem_side::system.mem_ctrls.port    136299456                       # Cumulative packet size per connected master and slave (bytes)
system.membus.pkt_size_system.l2.mem_side::total    136299456                       # Cumulative packet size per connected master and slave (bytes)
system.membus.pkt_size::total               136299456                       # Cumulative packet size per connected master and slave (bytes)
system.membus.snoops                                0                       # Total snoops (count)
system.membus.snoop_fanout::samples           2984589                       # Request fanout histogram
system.membus.snoop_fanout::mean                    0                       # Request fanout histogram
system.membus.snoop_fanout::stdev                   0                       # Request fanout histogram
system.membus.snoop_fanout::underflows              0      0.00%      0.00% # Request fanout histogram
system.membus.snoop_fanout::0                 2984589    100.00%    100.00% # Request fanout histogram
system.membus.snoop_fanout::1                       0      0.00%    100.00% # Request fanout histogram
system.membus.snoop_fanout::overflows               0      0.00%    100.00% # Request fanout histogram
system.membus.snoop_fanout::min_value               0                       # Request fanout histogram
system.membus.snoop_fanout::max_value               0                       # Request fanout histogram
system.membus.snoop_fanout::total             2984589                       # Request fanout histogram
system.membus.reqLayer2.occupancy          5530097000                       # Layer occupancy (ticks)
system.membus.reqLayer2.utilization               0.5                       # Layer utilization (%)
system.membus.respLayer1.occupancy         8137352750                       # Layer occupancy (ticks)
system.membus.respLayer1.utilization              0.7                       # Layer utilization (%)
system.tol2bus.snoop_filter.tot_requests      4088237                       # Total number of requests made to the snoop filter.
system.tol2bus.snoop_filter.hit_single_requests      2042620                       # Number of requests hitting in the snoop filter with a single holder of the requested data.
system.tol2bus.snoop_filter.hit_multi_requests            1                       # Number of requests hitting in the snoop filter with multiple (>1) holders of the requested data.
system.tol2bus.snoop_filter.tot_snoops         508853                       # Total number of snoops made to the snoop filter.
system.tol2bus.snoop_filter.hit_single_snoops       508852                       # Number of snoops hitting in the snoop filter with a single holder of the requested data.
system.tol2bus.snoop_filter.hit_multi_snoops            1                       # Number of snoops hitting in the snoop filter with multiple (>1) holders of the requested data.
system.tol2bus.trans_dist::ReadResp           1456632                       # Transaction distribution
system.tol2bus.trans_dist::WritebackDirty      1535244                       # Transaction distribution
system.tol2bus.trans_dist::WritebackClean           45                       # Transaction distribution
system.tol2bus.trans_dist::CleanEvict         2076431                       # Transaction distribution
system.tol2bus.trans_dist::ReadExReq           588985                       # Transaction distribution
system.tol2bus.trans_dist::ReadExResp          588985                       # Transaction distribution
system.tol2bus.trans_dist::ReadCleanReq           994                       # Transaction distribution
system.tol2bus.trans_dist::ReadSharedReq      1455638                       # Transaction distribution
system.tol2bus.pkt_count_system.cpu.icache.mem_side::system.l2.cpu_side         2033                       # Packet count per connected master and slave (bytes)
system.tol2bus.pkt_count_system.cpu.dcache.mem_side::system.l2.cpu_side      6131820                       # Packet count per connected master and slave (bytes)
system.tol2bus.pkt_count::total               6133853                       # Packet count per connected master and slave (bytes)
system.tol2bus.pkt_size_system.cpu.icache.mem_side::system.l2.cpu_side        66496                       # Cumulative packet size per connected master and slave (bytes)
system.tol2bus.pkt_size_system.cpu.dcache.mem_side::system.l2.cpu_side    188485312                       # Cumulative packet size per connected master and slave (bytes)
system.tol2bus.pkt_size::total              188551808                       # Cumulative packet size per connected master and slave (bytes)
system.tol2bus.snoops                         1569101                       # Total snoops (count)
system.tol2bus.snoop_fanout::samples          3614718                       # Request fanout histogram
system.tol2bus.snoop_fanout::mean            0.140773                       # Request fanout histogram
system.tol2bus.snoop_fanout::stdev           0.347788                       # Request fanout histogram
system.tol2bus.snoop_fanout::underflows             0      0.00%      0.00% # Request fanout histogram
system.tol2bus.snoop_fanout::0                3105864     85.92%     85.92% # Request fanout histogram
system.tol2bus.snoop_fanout::1                 508853     14.08%    100.00% # Request fanout histogram
system.tol2bus.snoop_fanout::2                      1      0.00%    100.00% # Request fanout histogram
system.tol2bus.snoop_fanout::3                      0      0.00%    100.00% # Request fanout histogram
system.tol2bus.snoop_fanout::4                      0      0.00%    100.00% # Request fanout histogram
system.tol2bus.snoop_fanout::overflows              0      0.00%    100.00% # Request fanout histogram
system.tol2bus.snoop_fanout::min_value              0                       # Request fanout histogram
system.tol2bus.snoop_fanout::max_value              2                       # Request fanout histogram
system.tol2bus.snoop_fanout::total            3614718                       # Request fanout histogram
system.tol2bus.reqLayer0.occupancy         2944623500                       # Layer occupancy (ticks)
system.tol2bus.reqLayer0.utilization              0.3                       # Layer utilization (%)
system.tol2bus.respLayer0.occupancy           1491000                       # Layer occupancy (ticks)
system.tol2bus.respLayer0.utilization             0.0                       # Layer utilization (%)
system.tol2bus.respLayer1.occupancy        3066934500                       # Layer occupancy (ticks)
system.tol2bus.respLayer1.utilization             0.3                       # Layer utilization (%)

---------- End Simulation Statistics   ----------
