
---------- Begin Simulation Statistics ----------
sim_seconds                                  2.296970                       # Number of seconds simulated
sim_ticks                                2296969954500                       # Number of ticks simulated
final_tick                               2296969954500                       # Number of ticks from beginning of simulation (restored from checkpoints and never reset)
sim_freq                                 1000000000000                       # Frequency of simulated ticks
host_inst_rate                                 718827                       # Simulator instruction rate (inst/s)
host_op_rate                                  1050135                       # Simulator op (including micro ops) rate (op/s)
host_tick_rate                             3302246816                       # Simulator tick rate (ticks/s)
host_mem_usage                                 829072                       # Number of bytes of host memory used
host_seconds                                   695.58                       # Real time elapsed on the host
sim_insts                                   500000000                       # Number of instructions simulated
sim_ops                                     730450481                       # Number of ops (including micro ops) simulated
system.voltage_domain.voltage                       1                       # Voltage in Volts
system.clk_domain.clock                          1000                       # Clock period in ticks
system.mem_ctrls.bytes_read::cpu.inst          660648                       # Number of bytes read from this memory
system.mem_ctrls.bytes_read::cpu.data        35018336                       # Number of bytes read from this memory
system.mem_ctrls.bytes_read::total           35678984                       # Number of bytes read from this memory
system.mem_ctrls.bytes_inst_read::cpu.inst       660648                       # Number of instructions bytes read from this memory
system.mem_ctrls.bytes_inst_read::total        660648                       # Number of instructions bytes read from this memory
system.mem_ctrls.bytes_written::writebacks     14137184                       # Number of bytes written to this memory
system.mem_ctrls.bytes_written::total        14137184                       # Number of bytes written to this memory
system.mem_ctrls.num_reads::cpu.inst            82581                       # Number of read requests responded to by this memory
system.mem_ctrls.num_reads::cpu.data          4377292                       # Number of read requests responded to by this memory
system.mem_ctrls.num_reads::total             4459873                       # Number of read requests responded to by this memory
system.mem_ctrls.num_writes::writebacks       1767148                       # Number of write requests responded to by this memory
system.mem_ctrls.num_writes::total            1767148                       # Number of write requests responded to by this memory
system.mem_ctrls.bw_read::cpu.inst             287617                       # Total read bandwidth from this memory (bytes/s)
system.mem_ctrls.bw_read::cpu.data           15245448                       # Total read bandwidth from this memory (bytes/s)
system.mem_ctrls.bw_read::total              15533065                       # Total read bandwidth from this memory (bytes/s)
system.mem_ctrls.bw_inst_read::cpu.inst        287617                       # Instruction read bandwidth from this memory (bytes/s)
system.mem_ctrls.bw_inst_read::total           287617                       # Instruction read bandwidth from this memory (bytes/s)
system.mem_ctrls.bw_write::writebacks         6154710                       # Write bandwidth from this memory (bytes/s)
system.mem_ctrls.bw_write::total              6154710                       # Write bandwidth from this memory (bytes/s)
system.mem_ctrls.bw_total::writebacks         6154710                       # Total bandwidth to/from this memory (bytes/s)
system.mem_ctrls.bw_total::cpu.inst            287617                       # Total bandwidth to/from this memory (bytes/s)
system.mem_ctrls.bw_total::cpu.data          15245448                       # Total bandwidth to/from this memory (bytes/s)
system.mem_ctrls.bw_total::total             21687775                       # Total bandwidth to/from this memory (bytes/s)
system.mem_ctrls.readReqs                     4459873                       # Number of read requests accepted
system.mem_ctrls.writeReqs                    1767148                       # Number of write requests accepted
system.mem_ctrls.readBursts                   4459873                       # Number of DRAM read bursts, including those serviced by the write queue
system.mem_ctrls.writeBursts                  1767148                       # Number of DRAM write bursts, including those merged in the write queue
system.mem_ctrls.bytesReadDRAM              284957376                       # Total number of bytes read from DRAM
system.mem_ctrls.bytesReadWrQ                  474496                       # Total number of bytes read from write queue
system.mem_ctrls.bytesWritten                71326400                       # Total number of bytes written to DRAM
system.mem_ctrls.bytesReadSys                35678984                       # Total read bytes from the system interface side
system.mem_ctrls.bytesWrittenSys             14137184                       # Total written bytes from the system interface side
system.mem_ctrls.servicedByWrQ                   7414                       # Number of DRAM read bursts serviced by the write queue
system.mem_ctrls.mergedWrBursts                652643                       # Number of DRAM write bursts merged with an existing one
system.mem_ctrls.neitherReadNorWriteReqs      2659957                       # Number of requests that are neither read nor write
system.mem_ctrls.perBankRdBursts::0            275341                       # Per bank write bursts
system.mem_ctrls.perBankRdBursts::1            289624                       # Per bank write bursts
system.mem_ctrls.perBankRdBursts::2            350488                       # Per bank write bursts
system.mem_ctrls.perBankRdBursts::3            267221                       # Per bank write bursts
system.mem_ctrls.perBankRdBursts::4            264884                       # Per bank write bursts
system.mem_ctrls.perBankRdBursts::5            270170                       # Per bank write bursts
system.mem_ctrls.perBankRdBursts::6            289887                       # Per bank write bursts
system.mem_ctrls.perBankRdBursts::7            280867                       # Per bank write bursts
system.mem_ctrls.perBankRdBursts::8            254520                       # Per bank write bursts
system.mem_ctrls.perBankRdBursts::9            253434                       # Per bank write bursts
system.mem_ctrls.perBankRdBursts::10           265758                       # Per bank write bursts
system.mem_ctrls.perBankRdBursts::11           280507                       # Per bank write bursts
system.mem_ctrls.perBankRdBursts::12           273400                       # Per bank write bursts
system.mem_ctrls.perBankRdBursts::13           268325                       # Per bank write bursts
system.mem_ctrls.perBankRdBursts::14           275567                       # Per bank write bursts
system.mem_ctrls.perBankRdBursts::15           292466                       # Per bank write bursts
system.mem_ctrls.perBankWrBursts::0             70877                       # Per bank write bursts
system.mem_ctrls.perBankWrBursts::1             67873                       # Per bank write bursts
system.mem_ctrls.perBankWrBursts::2             69351                       # Per bank write bursts
system.mem_ctrls.perBankWrBursts::3             65851                       # Per bank write bursts
system.mem_ctrls.perBankWrBursts::4             65881                       # Per bank write bursts
system.mem_ctrls.perBankWrBursts::5             66033                       # Per bank write bursts
system.mem_ctrls.perBankWrBursts::6             68876                       # Per bank write bursts
system.mem_ctrls.perBankWrBursts::7             69188                       # Per bank write bursts
system.mem_ctrls.perBankWrBursts::8             68150                       # Per bank write bursts
system.mem_ctrls.perBankWrBursts::9             68767                       # Per bank write bursts
system.mem_ctrls.perBankWrBursts::10            69280                       # Per bank write bursts
system.mem_ctrls.perBankWrBursts::11            70394                       # Per bank write bursts
system.mem_ctrls.perBankWrBursts::12            67997                       # Per bank write bursts
system.mem_ctrls.perBankWrBursts::13            69681                       # Per bank write bursts
system.mem_ctrls.perBankWrBursts::14            74756                       # Per bank write bursts
system.mem_ctrls.perBankWrBursts::15            81520                       # Per bank write bursts
system.mem_ctrls.numRdRetry                         0                       # Number of times read queue was full causing retry
system.mem_ctrls.numWrRetry                         0                       # Number of times write queue was full causing retry
system.mem_ctrls.totGap                  2296967442500                       # Total gap between requests
system.mem_ctrls.readPktSize::0                     0                       # Read request sizes (log2)
system.mem_ctrls.readPktSize::1                     0                       # Read request sizes (log2)
system.mem_ctrls.readPktSize::2                     0                       # Read request sizes (log2)
system.mem_ctrls.readPktSize::3               4459873                       # Read request sizes (log2)
system.mem_ctrls.readPktSize::4                     0                       # Read request sizes (log2)
system.mem_ctrls.readPktSize::5                     0                       # Read request sizes (log2)
system.mem_ctrls.readPktSize::6                     0                       # Read request sizes (log2)
system.mem_ctrls.writePktSize::0                    0                       # Write request sizes (log2)
system.mem_ctrls.writePktSize::1                    0                       # Write request sizes (log2)
system.mem_ctrls.writePktSize::2                    0                       # Write request sizes (log2)
system.mem_ctrls.writePktSize::3              1767148                       # Write request sizes (log2)
system.mem_ctrls.writePktSize::4                    0                       # Write request sizes (log2)
system.mem_ctrls.writePktSize::5                    0                       # Write request sizes (log2)
system.mem_ctrls.writePktSize::6                    0                       # Write request sizes (log2)
system.mem_ctrls.rdQLenPdf::0                 4436070                       # What read queue length does an incoming req see
system.mem_ctrls.rdQLenPdf::1                   11129                       # What read queue length does an incoming req see
system.mem_ctrls.rdQLenPdf::2                    5260                       # What read queue length does an incoming req see
system.mem_ctrls.rdQLenPdf::3                       0                       # What read queue length does an incoming req see
system.mem_ctrls.rdQLenPdf::4                       0                       # What read queue length does an incoming req see
system.mem_ctrls.rdQLenPdf::5                       0                       # What read queue length does an incoming req see
system.mem_ctrls.rdQLenPdf::6                       0                       # What read queue length does an incoming req see
system.mem_ctrls.rdQLenPdf::7                       0                       # What read queue length does an incoming req see
system.mem_ctrls.rdQLenPdf::8                       0                       # What read queue length does an incoming req see
system.mem_ctrls.rdQLenPdf::9                       0                       # What read queue length does an incoming req see
system.mem_ctrls.rdQLenPdf::10                      0                       # What read queue length does an incoming req see
system.mem_ctrls.rdQLenPdf::11                      0                       # What read queue length does an incoming req see
system.mem_ctrls.rdQLenPdf::12                      0                       # What read queue length does an incoming req see
system.mem_ctrls.rdQLenPdf::13                      0                       # What read queue length does an incoming req see
system.mem_ctrls.rdQLenPdf::14                      0                       # What read queue length does an incoming req see
system.mem_ctrls.rdQLenPdf::15                      0                       # What read queue length does an incoming req see
system.mem_ctrls.rdQLenPdf::16                      0                       # What read queue length does an incoming req see
system.mem_ctrls.rdQLenPdf::17                      0                       # What read queue length does an incoming req see
system.mem_ctrls.rdQLenPdf::18                      0                       # What read queue length does an incoming req see
system.mem_ctrls.rdQLenPdf::19                      0                       # What read queue length does an incoming req see
system.mem_ctrls.rdQLenPdf::20                      0                       # What read queue length does an incoming req see
system.mem_ctrls.rdQLenPdf::21                      0                       # What read queue length does an incoming req see
system.mem_ctrls.rdQLenPdf::22                      0                       # What read queue length does an incoming req see
system.mem_ctrls.rdQLenPdf::23                      0                       # What read queue length does an incoming req see
system.mem_ctrls.rdQLenPdf::24                      0                       # What read queue length does an incoming req see
system.mem_ctrls.rdQLenPdf::25                      0                       # What read queue length does an incoming req see
system.mem_ctrls.rdQLenPdf::26                      0                       # What read queue length does an incoming req see
system.mem_ctrls.rdQLenPdf::27                      0                       # What read queue length does an incoming req see
system.mem_ctrls.rdQLenPdf::28                      0                       # What read queue length does an incoming req see
system.mem_ctrls.rdQLenPdf::29                      0                       # What read queue length does an incoming req see
system.mem_ctrls.rdQLenPdf::30                      0                       # What read queue length does an incoming req see
system.mem_ctrls.rdQLenPdf::31                      0                       # What read queue length does an incoming req see
system.mem_ctrls.wrQLenPdf::0                       1                       # What write queue length does an incoming req see
system.mem_ctrls.wrQLenPdf::1                       1                       # What write queue length does an incoming req see
system.mem_ctrls.wrQLenPdf::2                       1                       # What write queue length does an incoming req see
system.mem_ctrls.wrQLenPdf::3                       1                       # What write queue length does an incoming req see
system.mem_ctrls.wrQLenPdf::4                       1                       # What write queue length does an incoming req see
system.mem_ctrls.wrQLenPdf::5                       1                       # What write queue length does an incoming req see
system.mem_ctrls.wrQLenPdf::6                       1                       # What write queue length does an incoming req see
system.mem_ctrls.wrQLenPdf::7                       1                       # What write queue length does an incoming req see
system.mem_ctrls.wrQLenPdf::8                       1                       # What write queue length does an incoming req see
system.mem_ctrls.wrQLenPdf::9                       1                       # What write queue length does an incoming req see
system.mem_ctrls.wrQLenPdf::10                      1                       # What write queue length does an incoming req see
system.mem_ctrls.wrQLenPdf::11                      1                       # What write queue length does an incoming req see
system.mem_ctrls.wrQLenPdf::12                      1                       # What write queue length does an incoming req see
system.mem_ctrls.wrQLenPdf::13                      1                       # What write queue length does an incoming req see
system.mem_ctrls.wrQLenPdf::14                      1                       # What write queue length does an incoming req see
system.mem_ctrls.wrQLenPdf::15                  32983                       # What write queue length does an incoming req see
system.mem_ctrls.wrQLenPdf::16                  36420                       # What write queue length does an incoming req see
system.mem_ctrls.wrQLenPdf::17                  64976                       # What write queue length does an incoming req see
system.mem_ctrls.wrQLenPdf::18                  65406                       # What write queue length does an incoming req see
system.mem_ctrls.wrQLenPdf::19                  65350                       # What write queue length does an incoming req see
system.mem_ctrls.wrQLenPdf::20                  65311                       # What write queue length does an incoming req see
system.mem_ctrls.wrQLenPdf::21                  65310                       # What write queue length does an incoming req see
system.mem_ctrls.wrQLenPdf::22                  65310                       # What write queue length does an incoming req see
system.mem_ctrls.wrQLenPdf::23                  65305                       # What write queue length does an incoming req see
system.mem_ctrls.wrQLenPdf::24                  65308                       # What write queue length does an incoming req see
system.mem_ctrls.wrQLenPdf::25                  65324                       # What write queue length does an incoming req see
system.mem_ctrls.wrQLenPdf::26                  65320                       # What write queue length does an incoming req see
system.mem_ctrls.wrQLenPdf::27                  65327                       # What write queue length does an incoming req see
system.mem_ctrls.wrQLenPdf::28                  65322                       # What write queue length does an incoming req see
system.mem_ctrls.wrQLenPdf::29                  65394                       # What write queue length does an incoming req see
system.mem_ctrls.wrQLenPdf::30                  65299                       # What write queue length does an incoming req see
system.mem_ctrls.wrQLenPdf::31                  65526                       # What write queue length does an incoming req see
system.mem_ctrls.wrQLenPdf::32                  65297                       # What write queue length does an incoming req see
system.mem_ctrls.wrQLenPdf::33                      2                       # What write queue length does an incoming req see
system.mem_ctrls.wrQLenPdf::34                      0                       # What write queue length does an incoming req see
system.mem_ctrls.wrQLenPdf::35                      0                       # What write queue length does an incoming req see
system.mem_ctrls.wrQLenPdf::36                      0                       # What write queue length does an incoming req see
system.mem_ctrls.wrQLenPdf::37                      0                       # What write queue length does an incoming req see
system.mem_ctrls.wrQLenPdf::38                      0                       # What write queue length does an incoming req see
system.mem_ctrls.wrQLenPdf::39                      0                       # What write queue length does an incoming req see
system.mem_ctrls.wrQLenPdf::40                      0                       # What write queue length does an incoming req see
system.mem_ctrls.wrQLenPdf::41                      0                       # What write queue length does an incoming req see
system.mem_ctrls.wrQLenPdf::42                      0                       # What write queue length does an incoming req see
system.mem_ctrls.wrQLenPdf::43                      0                       # What write queue length does an incoming req see
system.mem_ctrls.wrQLenPdf::44                      0                       # What write queue length does an incoming req see
system.mem_ctrls.wrQLenPdf::45                      0                       # What write queue length does an incoming req see
system.mem_ctrls.wrQLenPdf::46                      0                       # What write queue length does an incoming req see
system.mem_ctrls.wrQLenPdf::47                      0                       # What write queue length does an incoming req see
system.mem_ctrls.wrQLenPdf::48                      0                       # What write queue length does an incoming req see
system.mem_ctrls.wrQLenPdf::49                      0                       # What write queue length does an incoming req see
system.mem_ctrls.wrQLenPdf::50                      0                       # What write queue length does an incoming req see
system.mem_ctrls.wrQLenPdf::51                      0                       # What write queue length does an incoming req see
system.mem_ctrls.wrQLenPdf::52                      0                       # What write queue length does an incoming req see
system.mem_ctrls.wrQLenPdf::53                      0                       # What write queue length does an incoming req see
system.mem_ctrls.wrQLenPdf::54                      0                       # What write queue length does an incoming req see
system.mem_ctrls.wrQLenPdf::55                      0                       # What write queue length does an incoming req see
system.mem_ctrls.wrQLenPdf::56                      0                       # What write queue length does an incoming req see
system.mem_ctrls.wrQLenPdf::57                      0                       # What write queue length does an incoming req see
system.mem_ctrls.wrQLenPdf::58                      0                       # What write queue length does an incoming req see
system.mem_ctrls.wrQLenPdf::59                      0                       # What write queue length does an incoming req see
system.mem_ctrls.wrQLenPdf::60                      0                       # What write queue length does an incoming req see
system.mem_ctrls.wrQLenPdf::61                      0                       # What write queue length does an incoming req see
system.mem_ctrls.wrQLenPdf::62                      0                       # What write queue length does an incoming req see
system.mem_ctrls.wrQLenPdf::63                      0                       # What write queue length does an incoming req see
system.mem_ctrls.bytesPerActivate::samples      2402757                       # Bytes accessed per row activation
system.mem_ctrls.bytesPerActivate::mean    148.281209                       # Bytes accessed per row activation
system.mem_ctrls.bytesPerActivate::gmean   100.031540                       # Bytes accessed per row activation
system.mem_ctrls.bytesPerActivate::stdev   196.044860                       # Bytes accessed per row activation
system.mem_ctrls.bytesPerActivate::0-127      1577589     65.66%     65.66% # Bytes accessed per row activation
system.mem_ctrls.bytesPerActivate::128-255       481698     20.05%     85.71% # Bytes accessed per row activation
system.mem_ctrls.bytesPerActivate::256-383       128316      5.34%     91.05% # Bytes accessed per row activation
system.mem_ctrls.bytesPerActivate::384-511        70241      2.92%     93.97% # Bytes accessed per row activation
system.mem_ctrls.bytesPerActivate::512-639        38317      1.59%     95.56% # Bytes accessed per row activation
system.mem_ctrls.bytesPerActivate::640-767        17682      0.74%     96.30% # Bytes accessed per row activation
system.mem_ctrls.bytesPerActivate::768-895        10984      0.46%     96.76% # Bytes accessed per row activation
system.mem_ctrls.bytesPerActivate::896-1023        10603      0.44%     97.20% # Bytes accessed per row activation
system.mem_ctrls.bytesPerActivate::1024-1151        67327      2.80%    100.00% # Bytes accessed per row activation
system.mem_ctrls.bytesPerActivate::total      2402757                       # Bytes accessed per row activation
system.mem_ctrls.rdPerTurnAround::samples        65297                       # Reads before turning the bus around for writes
system.mem_ctrls.rdPerTurnAround::mean      67.822932                       # Reads before turning the bus around for writes
system.mem_ctrls.rdPerTurnAround::gmean     41.533954                       # Reads before turning the bus around for writes
system.mem_ctrls.rdPerTurnAround::stdev    900.678969                       # Reads before turning the bus around for writes
system.mem_ctrls.rdPerTurnAround::0-8191        65287     99.98%     99.98% # Reads before turning the bus around for writes
system.mem_ctrls.rdPerTurnAround::8192-16383            2      0.00%     99.99% # Reads before turning the bus around for writes
system.mem_ctrls.rdPerTurnAround::24576-32767            4      0.01%     99.99% # Reads before turning the bus around for writes
system.mem_ctrls.rdPerTurnAround::32768-40959            3      0.00%    100.00% # Reads before turning the bus around for writes
system.mem_ctrls.rdPerTurnAround::204800-212991            1      0.00%    100.00% # Reads before turning the bus around for writes
system.mem_ctrls.rdPerTurnAround::total         65297                       # Reads before turning the bus around for writes
system.mem_ctrls.wrPerTurnAround::samples        65297                       # Writes before turning the bus around for reads
system.mem_ctrls.wrPerTurnAround::mean      17.067783                       # Writes before turning the bus around for reads
system.mem_ctrls.wrPerTurnAround::gmean     17.039593                       # Writes before turning the bus around for reads
system.mem_ctrls.wrPerTurnAround::stdev      0.978543                       # Writes before turning the bus around for reads
system.mem_ctrls.wrPerTurnAround::16            28875     44.22%     44.22% # Writes before turning the bus around for reads
system.mem_ctrls.wrPerTurnAround::17             3431      5.25%     49.48% # Writes before turning the bus around for reads
system.mem_ctrls.wrPerTurnAround::18            32692     50.07%     99.54% # Writes before turning the bus around for reads
system.mem_ctrls.wrPerTurnAround::19              291      0.45%     99.99% # Writes before turning the bus around for reads
system.mem_ctrls.wrPerTurnAround::20                5      0.01%    100.00% # Writes before turning the bus around for reads
system.mem_ctrls.wrPerTurnAround::21                3      0.00%    100.00% # Writes before turning the bus around for reads
system.mem_ctrls.wrPerTurnAround::total         65297                       # Writes before turning the bus around for reads
system.mem_ctrls.totQLat                  52662072500                       # Total ticks spent queuing
system.mem_ctrls.totMemAccLat            136145678750                       # Total ticks spent from burst creation until serviced by the DRAM
system.mem_ctrls.totBusLat                22262295000                       # Total ticks spent in databus transfers
system.mem_ctrls.avgQLat                     11827.64                       # Average queueing delay per DRAM burst
system.mem_ctrls.avgBusLat                    5000.00                       # Average bus latency per DRAM burst
system.mem_ctrls.avgMemAccLat                30577.64                       # Average memory access latency per DRAM burst
system.mem_ctrls.avgRdBW                       124.06                       # Average DRAM read bandwidth in MiByte/s
system.mem_ctrls.avgWrBW                        31.05                       # Average achieved write bandwidth in MiByte/s
system.mem_ctrls.avgRdBWSys                     15.53                       # Average system read bandwidth in MiByte/s
system.mem_ctrls.avgWrBWSys                      6.15                       # Average system write bandwidth in MiByte/s
system.mem_ctrls.peakBW                      12800.00                       # Theoretical peak bandwidth in MiByte/s
system.mem_ctrls.busUtil                         1.21                       # Data bus utilization in percentage
system.mem_ctrls.busUtilRead                     0.97                       # Data bus utilization in percentage for reads
system.mem_ctrls.busUtilWrite                    0.24                       # Data bus utilization in percentage for writes
system.mem_ctrls.avgRdQLen                       1.00                       # Average read queue length when enqueuing
system.mem_ctrls.avgWrQLen                      25.98                       # Average write queue length when enqueuing
system.mem_ctrls.readRowHits                  2726127                       # Number of row buffer hits during reads
system.mem_ctrls.writeRowHits                  438049                       # Number of row buffer hits during writes
system.mem_ctrls.readRowHitRate                 61.23                       # Row buffer hit rate for reads
system.mem_ctrls.writeRowHitRate                39.30                       # Row buffer hit rate for writes
system.mem_ctrls.avgGap                     368871.00                       # Average gap between requests
system.mem_ctrls.pageHitRate                    56.84                       # Row buffer hit rate, read and write combined
system.mem_ctrls_0.actEnergy               9155485080                       # Energy for activate commands per rank (pJ)
system.mem_ctrls_0.preEnergy               4995552375                       # Energy for precharge commands per rank (pJ)
system.mem_ctrls_0.readEnergy             17850151800                       # Energy for read commands per rank (pJ)
system.mem_ctrls_0.writeEnergy             3524666400                       # Energy for write commands per rank (pJ)
system.mem_ctrls_0.refreshEnergy         150026725680                       # Energy for refresh commands per rank (pJ)
system.mem_ctrls_0.actBackEnergy         745035420735                       # Energy for active background per rank (pJ)
system.mem_ctrls_0.preBackEnergy         724640578500                       # Energy for precharge background per rank (pJ)
system.mem_ctrls_0.totalEnergy           1655228580570                       # Total energy per rank (pJ)
system.mem_ctrls_0.averagePower            720.614756                       # Core power per rank (mW)
system.mem_ctrls_0.memoryStateTime::IDLE 1200666061500                       # Time in different power states
system.mem_ctrls_0.memoryStateTime::REF   76700780000                       # Time in different power states
system.mem_ctrls_0.memoryStateTime::PRE_PDN            0                       # Time in different power states
system.mem_ctrls_0.memoryStateTime::ACT  1019600541000                       # Time in different power states
system.mem_ctrls_0.memoryStateTime::ACT_PDN            0                       # Time in different power states
system.mem_ctrls_1.actEnergy               9009357840                       # Energy for activate commands per rank (pJ)
system.mem_ctrls_1.preEnergy               4915820250                       # Energy for precharge commands per rank (pJ)
system.mem_ctrls_1.readEnergy             16879020600                       # Energy for read commands per rank (pJ)
system.mem_ctrls_1.writeEnergy             3697131600                       # Energy for write commands per rank (pJ)
system.mem_ctrls_1.refreshEnergy         150026725680                       # Energy for refresh commands per rank (pJ)
system.mem_ctrls_1.actBackEnergy         713465918010                       # Energy for active background per rank (pJ)
system.mem_ctrls_1.preBackEnergy         752333116500                       # Energy for precharge background per rank (pJ)
system.mem_ctrls_1.totalEnergy           1650327090480                       # Total energy per rank (pJ)
system.mem_ctrls_1.averagePower            718.480864                       # Core power per rank (mW)
system.mem_ctrls_1.memoryStateTime::IDLE 1246930656750                       # Time in different power states
system.mem_ctrls_1.memoryStateTime::REF   76700780000                       # Time in different power states
system.mem_ctrls_1.memoryStateTime::PRE_PDN            0                       # Time in different power states
system.mem_ctrls_1.memoryStateTime::ACT  973335932000                       # Time in different power states
system.mem_ctrls_1.memoryStateTime::ACT_PDN            0                       # Time in different power states
system.cpu.branchPred.lookups                37843290                       # Number of BP lookups
system.cpu.branchPred.condPredicted          37843290                       # Number of conditional branches predicted
system.cpu.branchPred.condIncorrect           2243222                       # Number of conditional branches incorrect
system.cpu.branchPred.BTBLookups             33071034                       # Number of BTB lookups
system.cpu.branchPred.BTBHits                33057643                       # Number of BTB hits
system.cpu.branchPred.BTBCorrect                    0                       # Number of correct BTB predictions (this stat may not work properly.
system.cpu.branchPred.BTBHitPct             99.959508                       # BTB Hit Percentage
system.cpu.branchPred.usedRAS                  726482                       # Number of times the RAS was used to get a target.
system.cpu.branchPred.RASInCorrect               2631                       # Number of incorrect RAS predictions.
system.cpu_voltage_domain.voltage                   1                       # Voltage in Volts
system.cpu_clk_domain.clock                       500                       # Clock period in ticks
system.cpu.apic_clk_domain.clock                 8000                       # Clock period in ticks
system.cpu.workload.num_syscalls                   86                       # Number of system calls
system.cpu.numCycles                       4593939909                       # number of cpu cycles simulated
system.cpu.numWorkItemsStarted                      0                       # number of work items this cpu started
system.cpu.numWorkItemsCompleted                    0                       # number of work items this cpu completed
system.cpu.committedInsts                   500000000                       # Number of instructions committed
system.cpu.committedOps                     730450481                       # Number of ops (including micro ops) committed
system.cpu.num_int_alu_accesses             729688887                       # Number of integer alu accesses
system.cpu.num_fp_alu_accesses                    761                       # Number of float alu accesses
system.cpu.num_func_calls                     1453959                       # number of times a function call or return occured
system.cpu.num_conditional_control_insts     31770494                       # number of instructions that are conditional controls
system.cpu.num_int_insts                    729688887                       # number of integer instructions
system.cpu.num_fp_insts                           761                       # number of float instructions
system.cpu.num_int_register_reads          1698743312                       # number of times the integer registers were read
system.cpu.num_int_register_writes          621892930                       # number of times the integer registers were written
system.cpu.num_fp_register_reads                 1183                       # number of times the floating registers were read
system.cpu.num_fp_register_writes                 497                       # number of times the floating registers were written
system.cpu.num_cc_register_reads            180840590                       # number of times the CC registers were read
system.cpu.num_cc_register_writes           276245123                       # number of times the CC registers were written
system.cpu.num_mem_refs                     295985437                       # number of memory refs
system.cpu.num_load_insts                   225946734                       # Number of load instructions
system.cpu.num_store_insts                   70038703                       # Number of store instructions
system.cpu.num_idle_cycles                          0                       # Number of idle cycles
system.cpu.num_busy_cycles                 4593939909                       # Number of busy cycles
system.cpu.not_idle_fraction                        1                       # Percentage of non-idle cycles
system.cpu.idle_fraction                            0                       # Percentage of idle cycles
system.cpu.Branches                          37843290                       # Number of branches fetched
system.cpu.predictedBranches                 33784125                       # Number of branches predicted as taken
system.cpu.BranchMispred                      2243222                       # Number of branch mispredictions
system.cpu.op_class::No_OpClass                 94739      0.01%      0.01% # Class of executed instruction
system.cpu.op_class::IntAlu                 434349056     59.46%     59.48% # Class of executed instruction
system.cpu.op_class::IntMult                    20662      0.00%     59.48% # Class of executed instruction
system.cpu.op_class::IntDiv                       119      0.00%     59.48% # Class of executed instruction
system.cpu.op_class::FloatAdd                     468      0.00%     59.48% # Class of executed instruction
system.cpu.op_class::FloatCmp                       0      0.00%     59.48% # Class of executed instruction
system.cpu.op_class::FloatCvt                       0      0.00%     59.48% # Class of executed instruction
system.cpu.op_class::FloatMult                      0      0.00%     59.48% # Class of executed instruction
system.cpu.op_class::FloatDiv                       0      0.00%     59.48% # Class of executed instruction
system.cpu.op_class::FloatSqrt                      0      0.00%     59.48% # Class of executed instruction
system.cpu.op_class::SimdAdd                        0      0.00%     59.48% # Class of executed instruction
system.cpu.op_class::SimdAddAcc                     0      0.00%     59.48% # Class of executed instruction
system.cpu.op_class::SimdAlu                        0      0.00%     59.48% # Class of executed instruction
system.cpu.op_class::SimdCmp                        0      0.00%     59.48% # Class of executed instruction
system.cpu.op_class::SimdCvt                        0      0.00%     59.48% # Class of executed instruction
system.cpu.op_class::SimdMisc                       0      0.00%     59.48% # Class of executed instruction
system.cpu.op_class::SimdMult                       0      0.00%     59.48% # Class of executed instruction
system.cpu.op_class::SimdMultAcc                    0      0.00%     59.48% # Class of executed instruction
system.cpu.op_class::SimdShift                      0      0.00%     59.48% # Class of executed instruction
system.cpu.op_class::SimdShiftAcc                   0      0.00%     59.48% # Class of executed instruction
system.cpu.op_class::SimdSqrt                       0      0.00%     59.48% # Class of executed instruction
system.cpu.op_class::SimdFloatAdd                   0      0.00%     59.48% # Class of executed instruction
system.cpu.op_class::SimdFloatAlu                   0      0.00%     59.48% # Class of executed instruction
system.cpu.op_class::SimdFloatCmp                   0      0.00%     59.48% # Class of executed instruction
system.cpu.op_class::SimdFloatCvt                   0      0.00%     59.48% # Class of executed instruction
system.cpu.op_class::SimdFloatDiv                   0      0.00%     59.48% # Class of executed instruction
system.cpu.op_class::SimdFloatMisc                  0      0.00%     59.48% # Class of executed instruction
system.cpu.op_class::SimdFloatMult                  0      0.00%     59.48% # Class of executed instruction
system.cpu.op_class::SimdFloatMultAcc               0      0.00%     59.48% # Class of executed instruction
system.cpu.op_class::SimdFloatSqrt                  0      0.00%     59.48% # Class of executed instruction
system.cpu.op_class::MemRead                225946734     30.93%     90.41% # Class of executed instruction
system.cpu.op_class::MemWrite                70038703      9.59%    100.00% # Class of executed instruction
system.cpu.op_class::IprAccess                      0      0.00%    100.00% # Class of executed instruction
system.cpu.op_class::InstPrefetch                   0      0.00%    100.00% # Class of executed instruction
system.cpu.op_class::total                  730450481                       # Class of executed instruction
system.cpu.dcache.tags.replacements          16981273                       # number of replacements
system.cpu.dcache.tags.tagsinuse           127.998725                       # Cycle average of tags in use
system.cpu.dcache.tags.total_refs           279004093                       # Total number of references to valid blocks.
system.cpu.dcache.tags.sampled_refs          16981401                       # Sample count of references to valid blocks.
system.cpu.dcache.tags.avg_refs             16.429981                       # Average number of references to valid blocks.
system.cpu.dcache.tags.warmup_cycle          58177500                       # Cycle when the warmup percentage was hit.
system.cpu.dcache.tags.occ_blocks::cpu.data   127.998725                       # Average occupied blocks per requestor
system.cpu.dcache.tags.occ_percent::cpu.data     0.999990                       # Average percentage of cache occupancy
system.cpu.dcache.tags.occ_percent::total     0.999990                       # Average percentage of cache occupancy
system.cpu.dcache.tags.occ_task_id_blocks::1024          128                       # Occupied blocks per task id
system.cpu.dcache.tags.age_task_id_blocks_1024::0            8                       # Occupied blocks per task id
system.cpu.dcache.tags.age_task_id_blocks_1024::1           46                       # Occupied blocks per task id
system.cpu.dcache.tags.age_task_id_blocks_1024::2           74                       # Occupied blocks per task id
system.cpu.dcache.tags.occ_task_id_percent::1024            1                       # Percentage of cache occupancy per task id
system.cpu.dcache.tags.tag_accesses         312966895                       # Number of tag accesses
system.cpu.dcache.tags.data_accesses        312966895                       # Number of data accesses
system.cpu.dcache.ReadReq_hits::cpu.data    212129277                       # number of ReadReq hits
system.cpu.dcache.ReadReq_hits::total       212129277                       # number of ReadReq hits
system.cpu.dcache.WriteReq_hits::cpu.data     63027839                       # number of WriteReq hits
system.cpu.dcache.WriteReq_hits::total       63027839                       # number of WriteReq hits
system.cpu.dcache.WriteLineReq_hits::cpu.data      3846977                       # number of WriteLineReq hits
system.cpu.dcache.WriteLineReq_hits::total      3846977                       # number of WriteLineReq hits
system.cpu.dcache.demand_hits::cpu.data     275157116                       # number of demand (read+write) hits
system.cpu.dcache.demand_hits::total        275157116                       # number of demand (read+write) hits
system.cpu.dcache.overall_hits::cpu.data    275157116                       # number of overall hits
system.cpu.dcache.overall_hits::total       275157116                       # number of overall hits
system.cpu.dcache.ReadReq_misses::cpu.data     13801118                       # number of ReadReq misses
system.cpu.dcache.ReadReq_misses::total      13801118                       # number of ReadReq misses
system.cpu.dcache.WriteReq_misses::cpu.data      2611628                       # number of WriteReq misses
system.cpu.dcache.WriteReq_misses::total      2611628                       # number of WriteReq misses
system.cpu.dcache.SoftPFReq_misses::cpu.data        16384                       # number of SoftPFReq misses
system.cpu.dcache.SoftPFReq_misses::total        16384                       # number of SoftPFReq misses
system.cpu.dcache.WriteLineReq_misses::cpu.data       552271                       # number of WriteLineReq misses
system.cpu.dcache.WriteLineReq_misses::total       552271                       # number of WriteLineReq misses
system.cpu.dcache.demand_misses::cpu.data     16412746                       # number of demand (read+write) misses
system.cpu.dcache.demand_misses::total       16412746                       # number of demand (read+write) misses
system.cpu.dcache.overall_misses::cpu.data     16429130                       # number of overall misses
system.cpu.dcache.overall_misses::total      16429130                       # number of overall misses
system.cpu.dcache.ReadReq_miss_latency::cpu.data 381915011000                       # number of ReadReq miss cycles
system.cpu.dcache.ReadReq_miss_latency::total 381915011000                       # number of ReadReq miss cycles
system.cpu.dcache.WriteReq_miss_latency::cpu.data 118318221000                       # number of WriteReq miss cycles
system.cpu.dcache.WriteReq_miss_latency::total 118318221000                       # number of WriteReq miss cycles
system.cpu.dcache.WriteLineReq_miss_latency::cpu.data  25512771000                       # number of WriteLineReq miss cycles
system.cpu.dcache.WriteLineReq_miss_latency::total  25512771000                       # number of WriteLineReq miss cycles
system.cpu.dcache.demand_miss_latency::cpu.data 500233232000                       # number of demand (read+write) miss cycles
system.cpu.dcache.demand_miss_latency::total 500233232000                       # number of demand (read+write) miss cycles
system.cpu.dcache.overall_miss_latency::cpu.data 500233232000                       # number of overall miss cycles
system.cpu.dcache.overall_miss_latency::total 500233232000                       # number of overall miss cycles
system.cpu.dcache.ReadReq_accesses::cpu.data    225930395                       # number of ReadReq accesses(hits+misses)
system.cpu.dcache.ReadReq_accesses::total    225930395                       # number of ReadReq accesses(hits+misses)
system.cpu.dcache.WriteReq_accesses::cpu.data     65639467                       # number of WriteReq accesses(hits+misses)
system.cpu.dcache.WriteReq_accesses::total     65639467                       # number of WriteReq accesses(hits+misses)
system.cpu.dcache.SoftPFReq_accesses::cpu.data        16384                       # number of SoftPFReq accesses(hits+misses)
system.cpu.dcache.SoftPFReq_accesses::total        16384                       # number of SoftPFReq accesses(hits+misses)
system.cpu.dcache.WriteLineReq_accesses::cpu.data      4399248                       # number of WriteLineReq accesses(hits+misses)
system.cpu.dcache.WriteLineReq_accesses::total      4399248                       # number of WriteLineReq accesses(hits+misses)
system.cpu.dcache.demand_accesses::cpu.data    291569862                       # number of demand (read+write) accesses
system.cpu.dcache.demand_accesses::total    291569862                       # number of demand (read+write) accesses
system.cpu.dcache.overall_accesses::cpu.data    291586246                       # number of overall (read+write) accesses
system.cpu.dcache.overall_accesses::total    291586246                       # number of overall (read+write) accesses
system.cpu.dcache.ReadReq_miss_rate::cpu.data     0.061086                       # miss rate for ReadReq accesses
system.cpu.dcache.ReadReq_miss_rate::total     0.061086                       # miss rate for ReadReq accesses
system.cpu.dcache.WriteReq_miss_rate::cpu.data     0.039787                       # miss rate for WriteReq accesses
system.cpu.dcache.WriteReq_miss_rate::total     0.039787                       # miss rate for WriteReq accesses
system.cpu.dcache.SoftPFReq_miss_rate::cpu.data            1                       # miss rate for SoftPFReq accesses
system.cpu.dcache.SoftPFReq_miss_rate::total            1                       # miss rate for SoftPFReq accesses
system.cpu.dcache.WriteLineReq_miss_rate::cpu.data     0.125538                       # miss rate for WriteLineReq accesses
system.cpu.dcache.WriteLineReq_miss_rate::total     0.125538                       # miss rate for WriteLineReq accesses
system.cpu.dcache.demand_miss_rate::cpu.data     0.056291                       # miss rate for demand accesses
system.cpu.dcache.demand_miss_rate::total     0.056291                       # miss rate for demand accesses
system.cpu.dcache.overall_miss_rate::cpu.data     0.056344                       # miss rate for overall accesses
system.cpu.dcache.overall_miss_rate::total     0.056344                       # miss rate for overall accesses
system.cpu.dcache.ReadReq_avg_miss_latency::cpu.data 27672.758903                       # average ReadReq miss latency
system.cpu.dcache.ReadReq_avg_miss_latency::total 27672.758903                       # average ReadReq miss latency
system.cpu.dcache.WriteReq_avg_miss_latency::cpu.data 45304.392892                       # average WriteReq miss latency
system.cpu.dcache.WriteReq_avg_miss_latency::total 45304.392892                       # average WriteReq miss latency
system.cpu.dcache.WriteLineReq_avg_miss_latency::cpu.data 46196.108432                       # average WriteLineReq miss latency
system.cpu.dcache.WriteLineReq_avg_miss_latency::total 46196.108432                       # average WriteLineReq miss latency
system.cpu.dcache.demand_avg_miss_latency::cpu.data 30478.338725                       # average overall miss latency
system.cpu.dcache.demand_avg_miss_latency::total 30478.338725                       # average overall miss latency
system.cpu.dcache.overall_avg_miss_latency::cpu.data 30447.944109                       # average overall miss latency
system.cpu.dcache.overall_avg_miss_latency::total 30447.944109                       # average overall miss latency
system.cpu.dcache.blocked_cycles::no_mshrs            0                       # number of cycles access was blocked
system.cpu.dcache.blocked_cycles::no_targets            0                       # number of cycles access was blocked
system.cpu.dcache.blocked::no_mshrs                 0                       # number of cycles access was blocked
system.cpu.dcache.blocked::no_targets               0                       # number of cycles access was blocked
system.cpu.dcache.avg_blocked_cycles::no_mshrs          nan                       # average number of cycles each access was blocked
system.cpu.dcache.avg_blocked_cycles::no_targets          nan                       # average number of cycles each access was blocked
system.cpu.dcache.fast_writes                       0                       # number of fast writes performed
system.cpu.dcache.cache_copies                      0                       # number of cache copies performed
system.cpu.dcache.writebacks::writebacks      8464909                       # number of writebacks
system.cpu.dcache.writebacks::total           8464909                       # number of writebacks
system.cpu.dcache.ReadReq_mshr_misses::cpu.data     13801118                       # number of ReadReq MSHR misses
system.cpu.dcache.ReadReq_mshr_misses::total     13801118                       # number of ReadReq MSHR misses
system.cpu.dcache.WriteReq_mshr_misses::cpu.data      2611628                       # number of WriteReq MSHR misses
system.cpu.dcache.WriteReq_mshr_misses::total      2611628                       # number of WriteReq MSHR misses
system.cpu.dcache.SoftPFReq_mshr_misses::cpu.data        16384                       # number of SoftPFReq MSHR misses
system.cpu.dcache.SoftPFReq_mshr_misses::total        16384                       # number of SoftPFReq MSHR misses
system.cpu.dcache.WriteLineReq_mshr_misses::cpu.data       552271                       # number of WriteLineReq MSHR misses
system.cpu.dcache.WriteLineReq_mshr_misses::total       552271                       # number of WriteLineReq MSHR misses
system.cpu.dcache.demand_mshr_misses::cpu.data     16412746                       # number of demand (read+write) MSHR misses
system.cpu.dcache.demand_mshr_misses::total     16412746                       # number of demand (read+write) MSHR misses
system.cpu.dcache.overall_mshr_misses::cpu.data     16429130                       # number of overall MSHR misses
system.cpu.dcache.overall_mshr_misses::total     16429130                       # number of overall MSHR misses
system.cpu.dcache.ReadReq_mshr_miss_latency::cpu.data 368113893000                       # number of ReadReq MSHR miss cycles
system.cpu.dcache.ReadReq_mshr_miss_latency::total 368113893000                       # number of ReadReq MSHR miss cycles
system.cpu.dcache.WriteReq_mshr_miss_latency::cpu.data 115706593000                       # number of WriteReq MSHR miss cycles
system.cpu.dcache.WriteReq_mshr_miss_latency::total 115706593000                       # number of WriteReq MSHR miss cycles
system.cpu.dcache.SoftPFReq_mshr_miss_latency::cpu.data   1245501000                       # number of SoftPFReq MSHR miss cycles
system.cpu.dcache.SoftPFReq_mshr_miss_latency::total   1245501000                       # number of SoftPFReq MSHR miss cycles
system.cpu.dcache.WriteLineReq_mshr_miss_latency::cpu.data  24960500000                       # number of WriteLineReq MSHR miss cycles
system.cpu.dcache.WriteLineReq_mshr_miss_latency::total  24960500000                       # number of WriteLineReq MSHR miss cycles
system.cpu.dcache.demand_mshr_miss_latency::cpu.data 483820486000                       # number of demand (read+write) MSHR miss cycles
system.cpu.dcache.demand_mshr_miss_latency::total 483820486000                       # number of demand (read+write) MSHR miss cycles
system.cpu.dcache.overall_mshr_miss_latency::cpu.data 485065987000                       # number of overall MSHR miss cycles
system.cpu.dcache.overall_mshr_miss_latency::total 485065987000                       # number of overall MSHR miss cycles
system.cpu.dcache.ReadReq_mshr_miss_rate::cpu.data     0.061086                       # mshr miss rate for ReadReq accesses
system.cpu.dcache.ReadReq_mshr_miss_rate::total     0.061086                       # mshr miss rate for ReadReq accesses
system.cpu.dcache.WriteReq_mshr_miss_rate::cpu.data     0.039787                       # mshr miss rate for WriteReq accesses
system.cpu.dcache.WriteReq_mshr_miss_rate::total     0.039787                       # mshr miss rate for WriteReq accesses
system.cpu.dcache.SoftPFReq_mshr_miss_rate::cpu.data            1                       # mshr miss rate for SoftPFReq accesses
system.cpu.dcache.SoftPFReq_mshr_miss_rate::total            1                       # mshr miss rate for SoftPFReq accesses
system.cpu.dcache.WriteLineReq_mshr_miss_rate::cpu.data     0.125538                       # mshr miss rate for WriteLineReq accesses
system.cpu.dcache.WriteLineReq_mshr_miss_rate::total     0.125538                       # mshr miss rate for WriteLineReq accesses
system.cpu.dcache.demand_mshr_miss_rate::cpu.data     0.056291                       # mshr miss rate for demand accesses
system.cpu.dcache.demand_mshr_miss_rate::total     0.056291                       # mshr miss rate for demand accesses
system.cpu.dcache.overall_mshr_miss_rate::cpu.data     0.056344                       # mshr miss rate for overall accesses
system.cpu.dcache.overall_mshr_miss_rate::total     0.056344                       # mshr miss rate for overall accesses
system.cpu.dcache.ReadReq_avg_mshr_miss_latency::cpu.data 26672.758903                       # average ReadReq mshr miss latency
system.cpu.dcache.ReadReq_avg_mshr_miss_latency::total 26672.758903                       # average ReadReq mshr miss latency
system.cpu.dcache.WriteReq_avg_mshr_miss_latency::cpu.data 44304.392892                       # average WriteReq mshr miss latency
system.cpu.dcache.WriteReq_avg_mshr_miss_latency::total 44304.392892                       # average WriteReq mshr miss latency
system.cpu.dcache.SoftPFReq_avg_mshr_miss_latency::cpu.data 76019.348145                       # average SoftPFReq mshr miss latency
system.cpu.dcache.SoftPFReq_avg_mshr_miss_latency::total 76019.348145                       # average SoftPFReq mshr miss latency
system.cpu.dcache.WriteLineReq_avg_mshr_miss_latency::cpu.data 45196.108432                       # average WriteLineReq mshr miss latency
system.cpu.dcache.WriteLineReq_avg_mshr_miss_latency::total 45196.108432                       # average WriteLineReq mshr miss latency
system.cpu.dcache.demand_avg_mshr_miss_latency::cpu.data 29478.338725                       # average overall mshr miss latency
system.cpu.dcache.demand_avg_mshr_miss_latency::total 29478.338725                       # average overall mshr miss latency
system.cpu.dcache.overall_avg_mshr_miss_latency::cpu.data 29524.751889                       # average overall mshr miss latency
system.cpu.dcache.overall_avg_mshr_miss_latency::total 29524.751889                       # average overall mshr miss latency
system.cpu.dcache.no_allocate_misses                0                       # Number of misses that were no-allocate
system.cpu.dtb_walker_cache.tags.replacements            0                       # number of replacements
system.cpu.dtb_walker_cache.tags.tagsinuse            0                       # Cycle average of tags in use
system.cpu.dtb_walker_cache.tags.total_refs            0                       # Total number of references to valid blocks.
system.cpu.dtb_walker_cache.tags.sampled_refs            0                       # Sample count of references to valid blocks.
system.cpu.dtb_walker_cache.tags.avg_refs          nan                       # Average number of references to valid blocks.
system.cpu.dtb_walker_cache.tags.warmup_cycle            0                       # Cycle when the warmup percentage was hit.
system.cpu.dtb_walker_cache.tags.tag_accesses            0                       # Number of tag accesses
system.cpu.dtb_walker_cache.tags.data_accesses            0                       # Number of data accesses
system.cpu.dtb_walker_cache.blocked_cycles::no_mshrs            0                       # number of cycles access was blocked
system.cpu.dtb_walker_cache.blocked_cycles::no_targets            0                       # number of cycles access was blocked
system.cpu.dtb_walker_cache.blocked::no_mshrs            0                       # number of cycles access was blocked
system.cpu.dtb_walker_cache.blocked::no_targets            0                       # number of cycles access was blocked
system.cpu.dtb_walker_cache.avg_blocked_cycles::no_mshrs          nan                       # average number of cycles each access was blocked
system.cpu.dtb_walker_cache.avg_blocked_cycles::no_targets          nan                       # average number of cycles each access was blocked
system.cpu.dtb_walker_cache.fast_writes             0                       # number of fast writes performed
system.cpu.dtb_walker_cache.cache_copies            0                       # number of cache copies performed
system.cpu.dtb_walker_cache.no_allocate_misses            0                       # Number of misses that were no-allocate
system.cpu.icache.tags.replacements          66612734                       # number of replacements
system.cpu.icache.tags.tagsinuse           127.999450                       # Cycle average of tags in use
system.cpu.icache.tags.total_refs           620784998                       # Total number of references to valid blocks.
system.cpu.icache.tags.sampled_refs          66612862                       # Sample count of references to valid blocks.
system.cpu.icache.tags.avg_refs              9.319296                       # Average number of references to valid blocks.
system.cpu.icache.tags.warmup_cycle          21030500                       # Cycle when the warmup percentage was hit.
system.cpu.icache.tags.occ_blocks::cpu.inst   127.999450                       # Average occupied blocks per requestor
system.cpu.icache.tags.occ_percent::cpu.inst     0.999996                       # Average percentage of cache occupancy
system.cpu.icache.tags.occ_percent::total     0.999996                       # Average percentage of cache occupancy
system.cpu.icache.tags.occ_task_id_blocks::1024          128                       # Occupied blocks per task id
system.cpu.icache.tags.age_task_id_blocks_1024::1           52                       # Occupied blocks per task id
system.cpu.icache.tags.age_task_id_blocks_1024::3           76                       # Occupied blocks per task id
system.cpu.icache.tags.occ_task_id_percent::1024            1                       # Percentage of cache occupancy per task id
system.cpu.icache.tags.tag_accesses        2816204302                       # Number of tag accesses
system.cpu.icache.tags.data_accesses       2816204302                       # Number of data accesses
system.cpu.icache.ReadReq_hits::cpu.inst    620784998                       # number of ReadReq hits
system.cpu.icache.ReadReq_hits::total       620784998                       # number of ReadReq hits
system.cpu.icache.demand_hits::cpu.inst     620784998                       # number of demand (read+write) hits
system.cpu.icache.demand_hits::total        620784998                       # number of demand (read+write) hits
system.cpu.icache.overall_hits::cpu.inst    620784998                       # number of overall hits
system.cpu.icache.overall_hits::total       620784998                       # number of overall hits
system.cpu.icache.ReadReq_misses::cpu.inst     66612862                       # number of ReadReq misses
system.cpu.icache.ReadReq_misses::total      66612862                       # number of ReadReq misses
system.cpu.icache.demand_misses::cpu.inst     66612862                       # number of demand (read+write) misses
system.cpu.icache.demand_misses::total       66612862                       # number of demand (read+write) misses
system.cpu.icache.overall_misses::cpu.inst     66612862                       # number of overall misses
system.cpu.icache.overall_misses::total      66612862                       # number of overall misses
system.cpu.icache.ReadReq_miss_latency::cpu.inst 871419010000                       # number of ReadReq miss cycles
system.cpu.icache.ReadReq_miss_latency::total 871419010000                       # number of ReadReq miss cycles
system.cpu.icache.demand_miss_latency::cpu.inst 871419010000                       # number of demand (read+write) miss cycles
system.cpu.icache.demand_miss_latency::total 871419010000                       # number of demand (read+write) miss cycles
system.cpu.icache.overall_miss_latency::cpu.inst 871419010000                       # number of overall miss cycles
system.cpu.icache.overall_miss_latency::total 871419010000                       # number of overall miss cycles
system.cpu.icache.ReadReq_accesses::cpu.inst    687397860                       # number of ReadReq accesses(hits+misses)
system.cpu.icache.ReadReq_accesses::total    687397860                       # number of ReadReq accesses(hits+misses)
system.cpu.icache.demand_accesses::cpu.inst    687397860                       # number of demand (read+write) accesses
system.cpu.icache.demand_accesses::total    687397860                       # number of demand (read+write) accesses
system.cpu.icache.overall_accesses::cpu.inst    687397860                       # number of overall (read+write) accesses
system.cpu.icache.overall_accesses::total    687397860                       # number of overall (read+write) accesses
system.cpu.icache.ReadReq_miss_rate::cpu.inst     0.096906                       # miss rate for ReadReq accesses
system.cpu.icache.ReadReq_miss_rate::total     0.096906                       # miss rate for ReadReq accesses
system.cpu.icache.demand_miss_rate::cpu.inst     0.096906                       # miss rate for demand accesses
system.cpu.icache.demand_miss_rate::total     0.096906                       # miss rate for demand accesses
system.cpu.icache.overall_miss_rate::cpu.inst     0.096906                       # miss rate for overall accesses
system.cpu.icache.overall_miss_rate::total     0.096906                       # miss rate for overall accesses
system.cpu.icache.ReadReq_avg_miss_latency::cpu.inst 13081.843113                       # average ReadReq miss latency
system.cpu.icache.ReadReq_avg_miss_latency::total 13081.843113                       # average ReadReq miss latency
system.cpu.icache.demand_avg_miss_latency::cpu.inst 13081.843113                       # average overall miss latency
system.cpu.icache.demand_avg_miss_latency::total 13081.843113                       # average overall miss latency
system.cpu.icache.overall_avg_miss_latency::cpu.inst 13081.843113                       # average overall miss latency
system.cpu.icache.overall_avg_miss_latency::total 13081.843113                       # average overall miss latency
system.cpu.icache.blocked_cycles::no_mshrs            0                       # number of cycles access was blocked
system.cpu.icache.blocked_cycles::no_targets            0                       # number of cycles access was blocked
system.cpu.icache.blocked::no_mshrs                 0                       # number of cycles access was blocked
system.cpu.icache.blocked::no_targets               0                       # number of cycles access was blocked
system.cpu.icache.avg_blocked_cycles::no_mshrs          nan                       # average number of cycles each access was blocked
system.cpu.icache.avg_blocked_cycles::no_targets          nan                       # average number of cycles each access was blocked
system.cpu.icache.fast_writes                       0                       # number of fast writes performed
system.cpu.icache.cache_copies                      0                       # number of cache copies performed
system.cpu.icache.writebacks::writebacks     66612734                       # number of writebacks
system.cpu.icache.writebacks::total          66612734                       # number of writebacks
system.cpu.icache.ReadReq_mshr_misses::cpu.inst     66612862                       # number of ReadReq MSHR misses
system.cpu.icache.ReadReq_mshr_misses::total     66612862                       # number of ReadReq MSHR misses
system.cpu.icache.demand_mshr_misses::cpu.inst     66612862                       # number of demand (read+write) MSHR misses
system.cpu.icache.demand_mshr_misses::total     66612862                       # number of demand (read+write) MSHR misses
system.cpu.icache.overall_mshr_misses::cpu.inst     66612862                       # number of overall MSHR misses
system.cpu.icache.overall_mshr_misses::total     66612862                       # number of overall MSHR misses
system.cpu.icache.ReadReq_mshr_miss_latency::cpu.inst 804806148000                       # number of ReadReq MSHR miss cycles
system.cpu.icache.ReadReq_mshr_miss_latency::total 804806148000                       # number of ReadReq MSHR miss cycles
system.cpu.icache.demand_mshr_miss_latency::cpu.inst 804806148000                       # number of demand (read+write) MSHR miss cycles
system.cpu.icache.demand_mshr_miss_latency::total 804806148000                       # number of demand (read+write) MSHR miss cycles
system.cpu.icache.overall_mshr_miss_latency::cpu.inst 804806148000                       # number of overall MSHR miss cycles
system.cpu.icache.overall_mshr_miss_latency::total 804806148000                       # number of overall MSHR miss cycles
system.cpu.icache.ReadReq_mshr_miss_rate::cpu.inst     0.096906                       # mshr miss rate for ReadReq accesses
system.cpu.icache.ReadReq_mshr_miss_rate::total     0.096906                       # mshr miss rate for ReadReq accesses
system.cpu.icache.demand_mshr_miss_rate::cpu.inst     0.096906                       # mshr miss rate for demand accesses
system.cpu.icache.demand_mshr_miss_rate::total     0.096906                       # mshr miss rate for demand accesses
system.cpu.icache.overall_mshr_miss_rate::cpu.inst     0.096906                       # mshr miss rate for overall accesses
system.cpu.icache.overall_mshr_miss_rate::total     0.096906                       # mshr miss rate for overall accesses
system.cpu.icache.ReadReq_avg_mshr_miss_latency::cpu.inst 12081.843113                       # average ReadReq mshr miss latency
system.cpu.icache.ReadReq_avg_mshr_miss_latency::total 12081.843113                       # average ReadReq mshr miss latency
system.cpu.icache.demand_avg_mshr_miss_latency::cpu.inst 12081.843113                       # average overall mshr miss latency
system.cpu.icache.demand_avg_mshr_miss_latency::total 12081.843113                       # average overall mshr miss latency
system.cpu.icache.overall_avg_mshr_miss_latency::cpu.inst 12081.843113                       # average overall mshr miss latency
system.cpu.icache.overall_avg_mshr_miss_latency::total 12081.843113                       # average overall mshr miss latency
system.cpu.icache.no_allocate_misses                0                       # Number of misses that were no-allocate
system.cpu.itb_walker_cache.tags.replacements            0                       # number of replacements
system.cpu.itb_walker_cache.tags.tagsinuse            0                       # Cycle average of tags in use
system.cpu.itb_walker_cache.tags.total_refs            0                       # Total number of references to valid blocks.
system.cpu.itb_walker_cache.tags.sampled_refs            0                       # Sample count of references to valid blocks.
system.cpu.itb_walker_cache.tags.avg_refs          nan                       # Average number of references to valid blocks.
system.cpu.itb_walker_cache.tags.warmup_cycle            0                       # Cycle when the warmup percentage was hit.
system.cpu.itb_walker_cache.tags.tag_accesses            0                       # Number of tag accesses
system.cpu.itb_walker_cache.tags.data_accesses            0                       # Number of data accesses
system.cpu.itb_walker_cache.blocked_cycles::no_mshrs            0                       # number of cycles access was blocked
system.cpu.itb_walker_cache.blocked_cycles::no_targets            0                       # number of cycles access was blocked
system.cpu.itb_walker_cache.blocked::no_mshrs            0                       # number of cycles access was blocked
system.cpu.itb_walker_cache.blocked::no_targets            0                       # number of cycles access was blocked
system.cpu.itb_walker_cache.avg_blocked_cycles::no_mshrs          nan                       # average number of cycles each access was blocked
system.cpu.itb_walker_cache.avg_blocked_cycles::no_targets          nan                       # average number of cycles each access was blocked
system.cpu.itb_walker_cache.fast_writes             0                       # number of fast writes performed
system.cpu.itb_walker_cache.cache_copies            0                       # number of cache copies performed
system.cpu.itb_walker_cache.no_allocate_misses            0                       # Number of misses that were no-allocate
system.l2.tags.replacements                   4464404                       # number of replacements
system.l2.tags.tagsinuse                 32682.410887                       # Cycle average of tags in use
system.l2.tags.total_refs                   159471160                       # Total number of references to valid blocks.
system.l2.tags.sampled_refs                   4497159                       # Sample count of references to valid blocks.
system.l2.tags.avg_refs                     35.460423                       # Average number of references to valid blocks.
system.l2.tags.warmup_cycle               48994114500                       # Cycle when the warmup percentage was hit.
system.l2.tags.occ_blocks::writebacks     8967.704278                       # Average occupied blocks per requestor
system.l2.tags.occ_blocks::cpu.inst        798.445290                       # Average occupied blocks per requestor
system.l2.tags.occ_blocks::cpu.data      22916.261320                       # Average occupied blocks per requestor
system.l2.tags.occ_percent::writebacks       0.273673                       # Average percentage of cache occupancy
system.l2.tags.occ_percent::cpu.inst         0.024367                       # Average percentage of cache occupancy
system.l2.tags.occ_percent::cpu.data         0.699349                       # Average percentage of cache occupancy
system.l2.tags.occ_percent::total            0.997388                       # Average percentage of cache occupancy
system.l2.tags.occ_task_id_blocks::1024         32755                       # Occupied blocks per task id
system.l2.tags.age_task_id_blocks_1024::1           75                       # Occupied blocks per task id
system.l2.tags.age_task_id_blocks_1024::2          116                       # Occupied blocks per task id
system.l2.tags.age_task_id_blocks_1024::3         5037                       # Occupied blocks per task id
system.l2.tags.age_task_id_blocks_1024::4        27527                       # Occupied blocks per task id
system.l2.tags.occ_task_id_percent::1024     0.999603                       # Percentage of cache occupancy per task id
system.l2.tags.tag_accesses                 174849328                       # Number of tag accesses
system.l2.tags.data_accesses                174849328                       # Number of data accesses
system.l2.WritebackDirty_hits::writebacks      8464909                       # number of WritebackDirty hits
system.l2.WritebackDirty_hits::total          8464909                       # number of WritebackDirty hits
system.l2.WritebackClean_hits::writebacks     66612734                       # number of WritebackClean hits
system.l2.WritebackClean_hits::total         66612734                       # number of WritebackClean hits
system.l2.ReadExReq_hits::cpu.data            1485201                       # number of ReadExReq hits
system.l2.ReadExReq_hits::total               1485201                       # number of ReadExReq hits
system.l2.ReadCleanReq_hits::cpu.inst        66530281                       # number of ReadCleanReq hits
system.l2.ReadCleanReq_hits::total           66530281                       # number of ReadCleanReq hits
system.l2.ReadSharedReq_hits::cpu.data       10864021                       # number of ReadSharedReq hits
system.l2.ReadSharedReq_hits::total          10864021                       # number of ReadSharedReq hits
system.l2.InvalidateReq_hits::cpu.data         254887                       # number of InvalidateReq hits
system.l2.InvalidateReq_hits::total            254887                       # number of InvalidateReq hits
system.l2.demand_hits::cpu.inst              66530281                       # number of demand (read+write) hits
system.l2.demand_hits::cpu.data              12349222                       # number of demand (read+write) hits
system.l2.demand_hits::total                 78879503                       # number of demand (read+write) hits
system.l2.overall_hits::cpu.inst             66530281                       # number of overall hits
system.l2.overall_hits::cpu.data             12349222                       # number of overall hits
system.l2.overall_hits::total                78879503                       # number of overall hits
system.l2.ReadExReq_misses::cpu.data          1126427                       # number of ReadExReq misses
system.l2.ReadExReq_misses::total             1126427                       # number of ReadExReq misses
system.l2.ReadCleanReq_misses::cpu.inst         82581                       # number of ReadCleanReq misses
system.l2.ReadCleanReq_misses::total            82581                       # number of ReadCleanReq misses
system.l2.ReadSharedReq_misses::cpu.data      2953481                       # number of ReadSharedReq misses
system.l2.ReadSharedReq_misses::total         2953481                       # number of ReadSharedReq misses
system.l2.InvalidateReq_misses::cpu.data       297384                       # number of InvalidateReq misses
system.l2.InvalidateReq_misses::total          297384                       # number of InvalidateReq misses
system.l2.demand_misses::cpu.inst               82581                       # number of demand (read+write) misses
system.l2.demand_misses::cpu.data             4079908                       # number of demand (read+write) misses
system.l2.demand_misses::total                4162489                       # number of demand (read+write) misses
system.l2.overall_misses::cpu.inst              82581                       # number of overall misses
system.l2.overall_misses::cpu.data            4079908                       # number of overall misses
system.l2.overall_misses::total               4162489                       # number of overall misses
system.l2.ReadExReq_miss_latency::cpu.data  96194540000                       # number of ReadExReq miss cycles
system.l2.ReadExReq_miss_latency::total   96194540000                       # number of ReadExReq miss cycles
system.l2.ReadCleanReq_miss_latency::cpu.inst   6318904500                       # number of ReadCleanReq miss cycles
system.l2.ReadCleanReq_miss_latency::total   6318904500                       # number of ReadCleanReq miss cycles
system.l2.ReadSharedReq_miss_latency::cpu.data 234560916000                       # number of ReadSharedReq miss cycles
system.l2.ReadSharedReq_miss_latency::total 234560916000                       # number of ReadSharedReq miss cycles
system.l2.InvalidateReq_miss_latency::cpu.data  21455780000                       # number of InvalidateReq miss cycles
system.l2.InvalidateReq_miss_latency::total  21455780000                       # number of InvalidateReq miss cycles
system.l2.demand_miss_latency::cpu.inst    6318904500                       # number of demand (read+write) miss cycles
system.l2.demand_miss_latency::cpu.data  330755456000                       # number of demand (read+write) miss cycles
system.l2.demand_miss_latency::total     337074360500                       # number of demand (read+write) miss cycles
system.l2.overall_miss_latency::cpu.inst   6318904500                       # number of overall miss cycles
system.l2.overall_miss_latency::cpu.data 330755456000                       # number of overall miss cycles
system.l2.overall_miss_latency::total    337074360500                       # number of overall miss cycles
system.l2.WritebackDirty_accesses::writebacks      8464909                       # number of WritebackDirty accesses(hits+misses)
system.l2.WritebackDirty_accesses::total      8464909                       # number of WritebackDirty accesses(hits+misses)
[...]
system.l2.overall_accesses::cpu.data         16429130                       # number of overall (read+write) accesses
system.l2.overall_accesses::total            83041992                       # number of overall (read+write) accesses
system.l2.ReadExReq_miss_rate::cpu.data      0.431312                       # miss rate for ReadExReq accesses
system.l2.ReadExReq_miss_rate::total         0.431312                       # miss rate for ReadExReq accesses
system.l2.ReadCleanReq_miss_rate::cpu.inst     0.001240                       # miss rate for ReadCleanReq accesses
system.l2.ReadCleanReq_miss_rate::total      0.001240                       # miss rate for ReadCleanReq accesses
system.l2.ReadSharedReq_miss_rate::cpu.data     0.213749                       # miss rate for ReadSharedReq accesses
system.l2.ReadSharedReq_miss_rate::total     0.213749                       # miss rate for ReadSharedReq accesses
system.l2.InvalidateReq_miss_rate::cpu.data     0.538475                       # miss rate for InvalidateReq accesses
system.l2.InvalidateReq_miss_rate::total     0.538475                       # miss rate for InvalidateReq accesses
system.l2.demand_miss_rate::cpu.inst         0.001240                       # miss rate for demand accesses
system.l2.demand_miss_rate::cpu.data         0.248334                       # miss rate for demand accesses
system.l2.demand_miss_rate::total            0.050125                       # miss rate for demand accesses
system.l2.overall_miss_rate::cpu.inst        0.001240                       # miss rate for overall accesses
system.l2.overall_miss_rate::cpu.data        0.248334                       # miss rate for overall accesses
system.l2.overall_miss_rate::total           0.050125                       # miss rate for overall accesses
system.l2.ReadExReq_avg_miss_latency::cpu.data 85397.935241                       # average ReadExReq miss latency
system.l2.ReadExReq_avg_miss_latency::total 85397.935241                       # average ReadExReq miss latency
system.l2.ReadCleanReq_avg_miss_latency::cpu.inst 76517.655393                       # average ReadCleanReq miss latency
system.l2.ReadCleanReq_avg_miss_latency::total 76517.655393                       # average ReadCleanReq miss latency
system.l2.ReadSharedReq_avg_miss_latency::cpu.data 79418.461131                       # average ReadSharedReq miss latency
system.l2.ReadSharedReq_avg_miss_latency::total 79418.461131                       # average ReadSharedReq miss latency
system.l2.InvalidateReq_avg_miss_latency::cpu.data 72148.400721                       # average InvalidateReq miss latency
system.l2.InvalidateReq_avg_miss_latency::total 72148.400721                       # average InvalidateReq miss latency
system.l2.demand_avg_miss_latency::cpu.inst 76517.655393                       # average overall miss latency
system.l2.demand_avg_miss_latency::cpu.data 81069.341760                       # average overall miss latency
system.l2.demand_avg_miss_latency::total 80979.039344                       # average overall miss latency
system.l2.overall_avg_miss_latency::cpu.inst 76517.655393                       # average overall miss latency
system.l2.overall_avg_miss_latency::cpu.data 81069.341760                       # average overall miss latency
system.l2.overall_avg_miss_latency::total 80979.039344                       # average overall miss latency
system.l2.blocked_cycles::no_mshrs                  0                       # number of cycles access was blocked
system.l2.blocked_cycles::no_targets                0                       # number of cycles access was blocked
system.l2.blocked::no_mshrs                         0                       # number of cycles access was blocked
system.l2.blocked::no_targets                       0                       # number of cycles access was blocked
system.l2.avg_blocked_cycles::no_mshrs            nan                       # average number of cycles each access was blocked
system.l2.avg_blocked_cycles::no_targets          nan                       # average number of cycles each access was blocked
system.l2.fast_writes                               0                       # number of fast writes performed
system.l2.cache_copies                              0                       # number of cache copies performed
system.l2.writebacks::writebacks              1767148                       # number of writebacks
system.l2.writebacks::total                   1767148                       # number of writebacks
system.l2.CleanEvict_mshr_misses::writebacks        52862                       # number of CleanEvict MSHR misses
system.l2.CleanEvict_mshr_misses::total         52862                       # number of CleanEvict MSHR misses
system.l2.ReadExReq_mshr_misses::cpu.data      1126427                       # number of ReadExReq MSHR misses
system.l2.ReadExReq_mshr_misses::total        1126427                       # number of ReadExReq MSHR misses
system.l2.ReadCleanReq_mshr_misses::cpu.inst        82581                       # number of ReadCleanReq MSHR misses
system.l2.ReadCleanReq_mshr_misses::total        82581                       # number of ReadCleanReq MSHR misses
system.l2.ReadSharedReq_mshr_misses::cpu.data      2953481                       # number of ReadSharedReq MSHR misses
system.l2.ReadSharedReq_mshr_misses::total      2953481                       # number of ReadSharedReq MSHR misses
system.l2.InvalidateReq_mshr_misses::cpu.data       297384                       # number of InvalidateReq MSHR misses
system.l2.InvalidateReq_mshr_misses::total       297384                       # number of InvalidateReq MSHR misses
system.l2.demand_mshr_misses::cpu.inst          82581                       # number of demand (read+write) MSHR misses
system.l2.demand_mshr_misses::cpu.data        4079908                       # number of demand (read+write) MSHR misses
system.l2.demand_mshr_misses::total           4162489                       # number of demand (read+write) MSHR misses
system.l2.overall_mshr_misses::cpu.inst         82581                       # number of overall MSHR misses
system.l2.overall_mshr_misses::cpu.data       4079908                       # number of overall MSHR misses
system.l2.overall_mshr_misses::total          4162489                       # number of overall MSHR misses
system.l2.ReadExReq_mshr_miss_latency::cpu.data  84930270000                       # number of ReadExReq MSHR miss cycles
system.l2.ReadExReq_mshr_miss_latency::total  84930270000                       # number of ReadExReq MSHR miss cycles
system.l2.ReadCleanReq_mshr_miss_latency::cpu.inst   5493094500                       # number of ReadCleanReq MSHR miss cycles
system.l2.ReadCleanReq_mshr_miss_latency::total   5493094500                       # number of ReadCleanReq MSHR miss cycles
system.l2.ReadSharedReq_mshr_miss_latency::cpu.data 205026106000                       # number of ReadSharedReq MSHR miss cycles
system.l2.ReadSharedReq_mshr_miss_latency::total 205026106000                       # number of ReadSharedReq MSHR miss cycles
system.l2.InvalidateReq_mshr_miss_latency::cpu.data  18481940000                       # number of InvalidateReq MSHR miss cycles
system.l2.InvalidateReq_mshr_miss_latency::total  18481940000                       # number of InvalidateReq MSHR miss cycles
system.l2.demand_mshr_miss_latency::cpu.inst   5493094500                       # number of demand (read+write) MSHR miss cycles
system.l2.demand_mshr_miss_latency::cpu.data 289956376000                       # number of demand (read+write) MSHR miss cycles
system.l2.demand_mshr_miss_latency::total 295449470500                       # number of demand (read+write) MSHR miss cycles
system.l2.overall_mshr_miss_latency::cpu.inst   5493094500                       # number of overall MSHR miss cycles
system.l2.overall_mshr_miss_latency::cpu.data 289956376000                       # number of overall MSHR miss cycles
system.l2.overall_mshr_miss_latency::total 295449470500                       # number of overall MSHR miss cycles
system.l2.CleanEvict_mshr_miss_rate::writebacks          inf                       # mshr miss rate for CleanEvict accesses
system.l2.CleanEvict_mshr_miss_rate::total          inf                       # mshr miss rate for CleanEvict accesses
system.l2.ReadExReq_mshr_miss_rate::cpu.data     0.431312                       # mshr miss rate for ReadExReq accesses
system.l2.ReadExReq_mshr_miss_rate::total     0.431312                       # mshr miss rate for ReadExReq accesses
system.l2.ReadCleanReq_mshr_miss_rate::cpu.inst     0.001240                       # mshr miss rate for ReadCleanReq accesses
system.l2.ReadCleanReq_mshr_miss_rate::total     0.001240                       # mshr miss rate for ReadCleanReq accesses
system.l2.ReadSharedReq_mshr_miss_rate::cpu.data     0.213749                       # mshr miss rate for ReadSharedReq accesses
system.l2.ReadSharedReq_mshr_miss_rate::total     0.213749                       # mshr miss rate for ReadSharedReq accesses
system.l2.InvalidateReq_mshr_miss_rate::cpu.data     0.538475                       # mshr miss rate for InvalidateReq accesses
system.l2.InvalidateReq_mshr_miss_rate::total     0.538475                       # mshr miss rate for InvalidateReq accesses
system.l2.demand_mshr_miss_rate::cpu.inst     0.001240                       # mshr miss rate for demand accesses
system.l2.demand_mshr_miss_rate::cpu.data     0.248334                       # mshr miss rate for demand accesses
system.l2.demand_mshr_miss_rate::total       0.050125                       # mshr miss rate for demand accesses
system.l2.overall_mshr_miss_rate::cpu.inst     0.001240                       # mshr miss rate for overall accesses
system.l2.overall_mshr_miss_rate::cpu.data     0.248334                       # mshr miss rate for overall accesses
system.l2.overall_mshr_miss_rate::total      0.050125                       # mshr miss rate for overall accesses
system.l2.ReadExReq_avg_mshr_miss_latency::cpu.data 75397.935241                       # average ReadExReq mshr miss latency
system.l2.ReadExReq_avg_mshr_miss_latency::total 75397.935241                       # average ReadExReq mshr miss latency
system.l2.ReadCleanReq_avg_mshr_miss_latency::cpu.inst 66517.655393                       # average ReadCleanReq mshr miss latency
system.l2.ReadCleanReq_avg_mshr_miss_latency::total 66517.655393                       # average ReadCleanReq mshr miss latency
system.l2.ReadSharedReq_avg_mshr_miss_latency::cpu.data 69418.461131                       # average ReadSharedReq mshr miss latency
system.l2.ReadSharedReq_avg_mshr_miss_latency::total 69418.461131                       # average ReadSharedReq mshr miss latency
system.l2.InvalidateReq_avg_mshr_miss_latency::cpu.data 62148.400721                       # average InvalidateReq mshr miss latency
system.l2.InvalidateReq_avg_mshr_miss_latency::total 62148.400721                       # average InvalidateReq mshr miss latency
system.l2.demand_avg_mshr_miss_latency::cpu.inst 66517.655393                       # average overall mshr miss latency
system.l2.demand_avg_mshr_miss_latency::cpu.data 71069.341760                       # average overall mshr miss latency
system.l2.demand_avg_mshr_miss_latency::total 70979.039344                       # average overall mshr miss latency
system.l2.overall_avg_mshr_miss_latency::cpu.inst 66517.655393                       # average overall mshr miss latency
system.l2.overall_avg_mshr_miss_latency::cpu.data 71069.341760                       # average overall mshr miss latency
system.l2.overall_avg_mshr_miss_latency::total 70979.039344                       # average overall mshr miss latency
system.l2.no_allocate_misses                        0                       # Number of misses that were no-allocate
system.membus.trans_dist::ReadResp            3036062                       # Transaction distribution
system.membus.trans_dist::WritebackDirty      1767148                       # Transaction distribution
system.membus.trans_dist::CleanEvict          2659957                       # Transaction distribution
system.membus.trans_dist::ReadExReq           1423811                       # Transaction distribution
system.membus.trans_dist::ReadExResp          1423811                       # Transaction distribution
system.membus.trans_dist::ReadSharedReq       3036062                       # Transaction distribution
system.membus.pkt_count_system.l2.mem_side::system.mem_ctrls.port     13346851                       # Packet count per connected master and slave (bytes)
system.membus.pkt_count_system.l2.mem_side::total     13346851                       # Packet count per connected master and slave (bytes)
system.membus.pkt_count::total               13346851                       # Packet count per connected master and slave (bytes)
system.membus.pkt_size_system.l2.mem_side::system.mem_ctrls.port     49816168                       # Cumulative packet size per connected master and slave (bytes)
system.membus.pkt_size_system.l2.mem_side::total     49816168                       # Cumulative packet size per connected master and slave (bytes)
system.membus.pkt_size::total                49816168                       # Cumulative packet size per connected master and slave (bytes)
system.membus.snoops                                0                       # Total snoops (count)
system.membus.snoop_fanout::samples           8886978                       # Request fanout histogram
system.membus.snoop_fanout::mean                    0                       # Request fanout histogram
system.membus.snoop_fanout::stdev                   0                       # Request fanout histogram
system.membus.snoop_fanout::underflows              0      0.00%      0.00% # Request fanout histogram
system.membus.snoop_fanout::0                 8886978    100.00%    100.00% # Request fanout histogram
system.membus.snoop_fanout::1                       0      0.00%    100.00% # Request fanout histogram
system.membus.snoop_fanout::overflows               0      0.00%    100.00% # Request fanout histogram
system.membus.snoop_fanout::min_value               0                       # Request fanout histogram
system.membus.snoop_fanout::max_value               0                       # Request fanout histogram
system.membus.snoop_fanout::total             8886978                       # Request fanout histogram
system.membus.reqLayer2.occupancy         10654131000                       # Layer occupancy (ticks)
system.membus.reqLayer2.utilization               0.5                       # Layer utilization (%)
system.membus.respLayer1.occupancy        10614332250                       # Layer occupancy (ticks)
system.membus.respLayer1.utilization              0.5                       # Layer utilization (%)
system.tol2bus.snoop_filter.tot_requests    167188270                       # Total number of requests made to the snoop filter.
system.tol2bus.snoop_filter.hit_single_requests     83594007                       # Number of requests hitting in the snoop filter with a single holder of the requested data.
system.tol2bus.snoop_filter.hit_multi_requests            0                       # Number of requests hitting in the snoop filter with multiple (>1) holders of the requested data.
system.tol2bus.snoop_filter.tot_snoops          90161                       # Total number of snoops made to the snoop filter.
system.tol2bus.snoop_filter.hit_single_snoops        90161                       # Number of snoops hitting in the snoop filter with a single holder of the requested data.
system.tol2bus.snoop_filter.hit_multi_snoops            0                       # Number of snoops hitting in the snoop filter with multiple (>1) holders of the requested data.
system.tol2bus.trans_dist::ReadResp          80430364                       # Transaction distribution
system.tol2bus.trans_dist::WritebackDirty     10232057                       # Transaction distribution
system.tol2bus.trans_dist::WritebackClean     66612734                       # Transaction distribution
system.tol2bus.trans_dist::CleanEvict        11213620                       # Transaction distribution
system.tol2bus.trans_dist::ReadExReq          2611628                       # Transaction distribution
system.tol2bus.trans_dist::ReadExResp         2611628                       # Transaction distribution
system.tol2bus.trans_dist::ReadCleanReq      66612862                       # Transaction distribution
system.tol2bus.trans_dist::ReadSharedReq     13817502                       # Transaction distribution
system.tol2bus.trans_dist::InvalidateReq       552271                       # Transaction distribution
system.tol2bus.trans_dist::InvalidateResp       552271                       # Transaction distribution
system.tol2bus.pkt_count_system.cpu.icache.mem_side::system.l2.cpu_side    199838458                       # Packet count per connected master and slave (bytes)
system.tol2bus.pkt_count_system.cpu.dcache.mem_side::system.l2.cpu_side     50944075                       # Packet count per connected master and slave (bytes)
system.tol2bus.pkt_count::total             250782533                       # Packet count per connected master and slave (bytes)
system.tol2bus.pkt_size_system.cpu.icache.mem_side::system.l2.cpu_side   1065804768                       # Cumulative packet size per connected master and slave (bytes)
system.tol2bus.pkt_size_system.cpu.dcache.mem_side::system.l2.cpu_side    199152312                       # Cumulative packet size per connected master and slave (bytes)
system.tol2bus.pkt_size::total             1264957080                       # Cumulative packet size per connected master and slave (bytes)
system.tol2bus.snoops                         4464404                       # Total snoops (count)
system.tol2bus.snoop_fanout::samples         88058667                       # Request fanout histogram
system.tol2bus.snoop_fanout::mean            0.001024                       # Request fanout histogram
system.tol2bus.snoop_fanout::stdev           0.031982                       # Request fanout histogram
system.tol2bus.snoop_fanout::underflows             0      0.00%      0.00% # Request fanout histogram
system.tol2bus.snoop_fanout::0               87968506     99.90%     99.90% # Request fanout histogram
system.tol2bus.snoop_fanout::1                  90161      0.10%    100.00% # Request fanout histogram
system.tol2bus.snoop_fanout::2                      0      0.00%    100.00% # Request fanout histogram
system.tol2bus.snoop_fanout::3                      0      0.00%    100.00% # Request fanout histogram
system.tol2bus.snoop_fanout::4                      0      0.00%    100.00% # Request fanout histogram
system.tol2bus.snoop_fanout::overflows              0      0.00%    100.00% # Request fanout histogram
system.tol2bus.snoop_fanout::min_value              0                       # Request fanout histogram
system.tol2bus.snoop_fanout::max_value              1                       # Request fanout histogram
system.tol2bus.snoop_fanout::total           88058667                       # Request fanout histogram
system.tol2bus.reqLayer0.occupancy       121132956500                       # Layer occupancy (ticks)
system.tol2bus.reqLayer0.utilization              5.3                       # Layer utilization (%)
system.tol2bus.respLayer0.occupancy       66612862000                       # Layer occupancy (ticks)
system.tol2bus.respLayer0.utilization             2.9                       # Layer utilization (%)
system.tol2bus.respLayer1.occupancy       16705265500                       # Layer occupancy (ticks)
system.tol2bus.respLayer1.utilization             0.7                       # Layer utilization (%)

---------- End Simulation Statistics   ----------
