
---------- Begin Simulation Statistics ----------
sim_seconds                                  1.051530                       # Number of seconds simulated
sim_ticks                                1051529717500                       # Number of ticks simulated
final_tick                               1051529717500                       # Number of ticks from beginning of simulation (restored from checkpoints and never reset)
sim_freq                                 1000000000000                       # Frequency of simulated ticks
host_inst_rate                                  35094                       # Simulator instruction rate (inst/s)
host_op_rate                                    51269                       # Simulator op (including micro ops) rate (op/s)
host_tick_rate                               73805683                       # Simulator tick rate (ticks/s)
host_mem_usage                                 828420                       # Number of bytes of host memory used
host_seconds                                 14247.27                       # Real time elapsed on the host
sim_insts                                   500000000                       # Number of instructions simulated
sim_ops                                     730450481                       # Number of ops (including micro ops) simulated
system.voltage_domain.voltage                       1                       # Voltage in Volts
system.clk_domain.clock                          1000                       # Clock period in ticks
system.mem_ctrls.bytes_read::cpu.inst           64000                       # Number of bytes read from this memory
system.mem_ctrls.bytes_read::cpu.data        39333952                       # Number of bytes read from this memory
system.mem_ctrls.bytes_read::total           39397952                       # Number of bytes read from this memory
system.mem_ctrls.bytes_inst_read::cpu.inst        64000                       # Number of instructions bytes read from this memory
system.mem_ctrls.bytes_inst_read::total         64000                       # Number of instructions bytes read from this memory
system.mem_ctrls.bytes_written::writebacks     23633920                       # Number of bytes written to this memory
system.mem_ctrls.bytes_written::total        23633920                       # Number of bytes written to this memory
system.mem_ctrls.num_reads::cpu.inst             1000                       # Number of read requests responded to by this memory
system.mem_ctrls.num_reads::cpu.data           614593                       # Number of read requests responded to by this memory
system.mem_ctrls.num_reads::total              615593                       # Number of read requests responded to by this memory
system.mem_ctrls.num_writes::writebacks        369280                       # Number of write requests responded to by this memory
system.mem_ctrls.num_writes::total             369280                       # Number of write requests responded to by this memory
system.mem_ctrls.bw_read::cpu.inst              60864                       # Total read bandwidth from this memory (bytes/s)
system.mem_ctrls.bw_read::cpu.data           37406410                       # Total read bandwidth from this memory (bytes/s)
system.mem_ctrls.bw_read::total              37467274                       # Total read bandwidth from this memory (bytes/s)
system.mem_ctrls.bw_inst_read::cpu.inst         60864                       # Instruction read bandwidth from this memory (bytes/s)
system.mem_ctrls.bw_inst_read::total            60864                       # Instruction read bandwidth from this memory (bytes/s)
system.mem_ctrls.bw_write::writebacks        22475751                       # Write bandwidth from this memory (bytes/s)
system.mem_ctrls.bw_write::total             22475751                       # Write bandwidth from this memory (bytes/s)
system.mem_ctrls.bw_total::writebacks        22475751                       # Total bandwidth to/from this memory (bytes/s)
system.mem_ctrls.bw_total::cpu.inst             60864                       # Total bandwidth to/from this memory (bytes/s)
system.mem_ctrls.bw_total::cpu.data          37406410                       # Total bandwidth to/from this memory (bytes/s)
system.mem_ctrls.bw_total::total             59943025                       # Total bandwidth to/from this memory (bytes/s)
system.mem_ctrls.readReqs                      615593                       # Number of read requests accepted
system.mem_ctrls.writeReqs                     369280                       # Number of write requests accepted
system.mem_ctrls.readBursts                    615593                       # Number of DRAM read bursts, including those serviced by the write queue
system.mem_ctrls.writeBursts                   369280                       # Number of DRAM write bursts, including those merged in the write queue
system.mem_ctrls.bytesReadDRAM               39326592                       # Total number of bytes read from DRAM
system.mem_ctrls.bytesReadWrQ                   71360                       # Total number of bytes read from write queue
system.mem_ctrls.bytesWritten                23632192                       # Total number of bytes written to DRAM
system.mem_ctrls.bytesReadSys                39397952                       # Total read bytes from the system interface side
system.mem_ctrls.bytesWrittenSys             23633920                       # Total written bytes from the system interface side
system.mem_ctrls.servicedByWrQ                   1115                       # Number of DRAM read bursts serviced by the write queue
system.mem_ctrls.mergedWrBursts                     0                       # Number of DRAM write bursts merged with an existing one
system.mem_ctrls.neitherReadNorWriteReqs       228874                       # Number of requests that are neither read nor write
system.mem_ctrls.perBankRdBursts::0             39487                       # Per bank write bursts
system.mem_ctrls.perBankRdBursts::1             38524                       # Per bank write bursts
system.mem_ctrls.perBankRdBursts::2             37687                       # Per bank write bursts
system.mem_ctrls.perBankRdBursts::3             37682                       # Per bank write bursts
system.mem_ctrls.perBankRdBursts::4             37480                       # Per bank write bursts
system.mem_ctrls.perBankRdBursts::5             37779                       # Per bank write bursts
system.mem_ctrls.perBankRdBursts::6             38313                       # Per bank write bursts
system.mem_ctrls.perBankRdBursts::7             38292                       # Per bank write bursts
system.mem_ctrls.perBankRdBursts::8             37698                       # Per bank write bursts
system.mem_ctrls.perBankRdBursts::9             37299                       # Per bank write bursts
system.mem_ctrls.perBankRdBursts::10            38512                       # Per bank write bursts
system.mem_ctrls.perBankRdBursts::11            39107                       # Per bank write bursts
system.mem_ctrls.perBankRdBursts::12            39127                       # Per bank write bursts
system.mem_ctrls.perBankRdBursts::13            38906                       # Per bank write bursts
system.mem_ctrls.perBankRdBursts::14            39336                       # Per bank write bursts
system.mem_ctrls.perBankRdBursts::15            39249                       # Per bank write bursts
system.mem_ctrls.perBankWrBursts::0             23832                       # Per bank write bursts
system.mem_ctrls.perBankWrBursts::1             22981                       # Per bank write bursts
system.mem_ctrls.perBankWrBursts::2             22410                       # Per bank write bursts
system.mem_ctrls.perBankWrBursts::3             22365                       # Per bank write bursts
system.mem_ctrls.perBankWrBursts::4             22148                       # Per bank write bursts
system.mem_ctrls.perBankWrBursts::5             21999                       # Per bank write bursts
system.mem_ctrls.perBankWrBursts::6             22234                       # Per bank write bursts
system.mem_ctrls.perBankWrBursts::7             22932                       # Per bank write bursts
system.mem_ctrls.perBankWrBursts::8             23503                       # Per bank write bursts
system.mem_ctrls.perBankWrBursts::9             23391                       # Per bank write bursts
system.mem_ctrls.perBankWrBursts::10            23500                       # Per bank write bursts
system.mem_ctrls.perBankWrBursts::11            23296                       # Per bank write bursts
system.mem_ctrls.perBankWrBursts::12            23314                       # Per bank write bursts
system.mem_ctrls.perBankWrBursts::13            23620                       # Per bank write bursts
system.mem_ctrls.perBankWrBursts::14            24031                       # Per bank write bursts
system.mem_ctrls.perBankWrBursts::15            23697                       # Per bank write bursts
system.mem_ctrls.numRdRetry                         0                       # Number of times read queue was full causing retry
system.mem_ctrls.numWrRetry                         0                       # Number of times write queue was full causing retry
system.mem_ctrls.totGap                  1051497051500                       # Total gap between requests
system.mem_ctrls.readPktSize::0                     0                       # Read request sizes (log2)
system.mem_ctrls.readPktSize::1                     0                       # Read request sizes (log2)
system.mem_ctrls.readPktSize::2                     0                       # Read request sizes (log2)
system.mem_ctrls.readPktSize::3                     0                       # Read request sizes (log2)
system.mem_ctrls.readPktSize::4                     0                       # Read request sizes (log2)
system.mem_ctrls.readPktSize::5                     0                       # Read request sizes (log2)
system.mem_ctrls.readPktSize::6                615593                       # Read request sizes (log2)
system.mem_ctrls.writePktSize::0                    0                       # Write request sizes (log2)
system.mem_ctrls.writePktSize::1                    0                       # Write request sizes (log2)
system.mem_ctrls.writePktSize::2                    0                       # Write request sizes (log2)
system.mem_ctrls.writePktSize::3                    0                       # Write request sizes (log2)
system.mem_ctrls.writePktSize::4                    0                       # Write request sizes (log2)
system.mem_ctrls.writePktSize::5                    0                       # Write request sizes (log2)
system.mem_ctrls.writePktSize::6               369280                       # Write request sizes (log2)
system.mem_ctrls.rdQLenPdf::0                  605743                       # What read queue length does an incoming req see
system.mem_ctrls.rdQLenPdf::1                    8041                       # What read queue length does an incoming req see
system.mem_ctrls.rdQLenPdf::2                     556                       # What read queue length does an incoming req see
system.mem_ctrls.rdQLenPdf::3                     138                       # What read queue length does an incoming req see
system.mem_ctrls.rdQLenPdf::4                       0                       # What read queue length does an incoming req see
system.mem_ctrls.rdQLenPdf::5                       0                       # What read queue length does an incoming req see
system.mem_ctrls.rdQLenPdf::6                       0                       # What read queue length does an incoming req see
system.mem_ctrls.rdQLenPdf::7                       0                       # What read queue length does an incoming req see
system.mem_ctrls.rdQLenPdf::8                       0                       # What read queue length does an incoming req see
system.mem_ctrls.rdQLenPdf::9                       0                       # What read queue length does an incoming req see
system.mem_ctrls.rdQLenPdf::10                      0                       # What read queue length does an incoming req see
system.mem_ctrls.rdQLenPdf::11                      0                       # What read queue length does an incoming req see
system.mem_ctrls.rdQLenPdf::12                      0                       # What read queue length does an incoming req see
system.mem_ctrls.rdQLenPdf::13                      0                       # What read queue length does an incoming req see
system.mem_ctrls.rdQLenPdf::14                      0                       # What read queue length does an incoming req see
system.mem_ctrls.rdQLenPdf::15                      0                       # What read queue length does an incoming req see
system.mem_ctrls.rdQLenPdf::16                      0                       # What read queue length does an incoming req see
system.mem_ctrls.rdQLenPdf::17                      0                       # What read queue length does an incoming req see
system.mem_ctrls.rdQLenPdf::18                      0                       # What read queue length does an incoming req see
system.mem_ctrls.rdQLenPdf::19                      0                       # What read queue length does an incoming req see
system.mem_ctrls.rdQLenPdf::20                      0                       # What read queue length does an incoming req see
system.mem_ctrls.rdQLenPdf::21                      0                       # What read queue length does an incoming req see
system.mem_ctrls.rdQLenPdf::22                      0                       # What read queue length does an incoming req see
system.mem_ctrls.rdQLenPdf::23                      0                       # What read queue length does an incoming req see
system.mem_ctrls.rdQLenPdf::24                      0                       # What read queue length does an incoming req see
system.mem_ctrls.rdQLenPdf::25                      0                       # What read queue length does an incoming req see
system.mem_ctrls.rdQLenPdf::26                      0                       # What read queue length does an incoming req see
system.mem_ctrls.rdQLenPdf::27                      0                       # What read queue length does an incoming req see
system.mem_ctrls.rdQLenPdf::28                      0                       # What read queue length does an incoming req see
system.mem_ctrls.rdQLenPdf::29                      0                       # What read queue length does an incoming req see
system.mem_ctrls.rdQLenPdf::30                      0                       # What read queue length does an incoming req see
system.mem_ctrls.rdQLenPdf::31                      0                       # What read queue length does an incoming req see
system.mem_ctrls.wrQLenPdf::0                       1                       # What write queue length does an incoming req see
system.mem_ctrls.wrQLenPdf::1                       1                       # What write queue length does an incoming req see
system.mem_ctrls.wrQLenPdf::2                       1                       # What write queue length does an incoming req see
system.mem_ctrls.wrQLenPdf::3                       1                       # What write queue length does an incoming req see
system.mem_ctrls.wrQLenPdf::4                       1                       # What write queue length does an incoming req see
system.mem_ctrls.wrQLenPdf::5                       1                       # What write queue length does an incoming req see
system.mem_ctrls.wrQLenPdf::6                       1                       # What write queue length does an incoming req see
system.mem_ctrls.wrQLenPdf::7                       1                       # What write queue length does an incoming req see
system.mem_ctrls.wrQLenPdf::8                       1                       # What write queue length does an incoming req see
system.mem_ctrls.wrQLenPdf::9                       1                       # What write queue length does an incoming req see
system.mem_ctrls.wrQLenPdf::10                      1                       # What write queue length does an incoming req see
system.mem_ctrls.wrQLenPdf::11                      1                       # What write queue length does an incoming req see
system.mem_ctrls.wrQLenPdf::12                      1                       # What write queue length does an incoming req see
system.mem_ctrls.wrQLenPdf::13                      1                       # What write queue length does an incoming req see
system.mem_ctrls.wrQLenPdf::14                      1                       # What write queue length does an incoming req see
system.mem_ctrls.wrQLenPdf::15                  14136                       # What write queue length does an incoming req see
system.mem_ctrls.wrQLenPdf::16                  14776                       # What write queue length does an incoming req see
system.mem_ctrls.wrQLenPdf::17                  20962                       # What write queue length does an incoming req see
system.mem_ctrls.wrQLenPdf::18                  21314                       # What write queue length does an incoming req see
system.mem_ctrls.wrQLenPdf::19                  21329                       # What write queue length does an incoming req see
system.mem_ctrls.wrQLenPdf::20                  21213                       # What write queue length does an incoming req see
system.mem_ctrls.wrQLenPdf::21                  21156                       # What write queue length does an incoming req see
system.mem_ctrls.wrQLenPdf::22                  21161                       # What write queue length does an incoming req see
system.mem_ctrls.wrQLenPdf::23                  21170                       # What write queue length does an incoming req see
system.mem_ctrls.wrQLenPdf::24                  21200                       # What write queue length does an incoming req see
system.mem_ctrls.wrQLenPdf::25                  21254                       # What write queue length does an incoming req see
system.mem_ctrls.wrQLenPdf::26                  21296                       # What write queue length does an incoming req see
system.mem_ctrls.wrQLenPdf::27                  21643                       # What write queue length does an incoming req see
system.mem_ctrls.wrQLenPdf::28                  22078                       # What write queue length does an incoming req see
system.mem_ctrls.wrQLenPdf::29                  21140                       # What write queue length does an incoming req see
system.mem_ctrls.wrQLenPdf::30                  21130                       # What write queue length does an incoming req see
system.mem_ctrls.wrQLenPdf::31                  21132                       # What write queue length does an incoming req see
system.mem_ctrls.wrQLenPdf::32                  21130                       # What write queue length does an incoming req see
system.mem_ctrls.wrQLenPdf::33                     38                       # What write queue length does an incoming req see
system.mem_ctrls.wrQLenPdf::34                      6                       # What write queue length does an incoming req see
system.mem_ctrls.wrQLenPdf::35                      1                       # What write queue length does an incoming req see
system.mem_ctrls.wrQLenPdf::36                      0                       # What write queue length does an incoming req see
system.mem_ctrls.wrQLenPdf::37                      0                       # What write queue length does an incoming req see
system.mem_ctrls.wrQLenPdf::38                      0                       # What write queue length does an incoming req see
system.mem_ctrls.wrQLenPdf::39                      0                       # What write queue length does an incoming req see
system.mem_ctrls.wrQLenPdf::40                      0                       # What write queue length does an incoming req see
system.mem_ctrls.wrQLenPdf::41                      0                       # What write queue length does an incoming req see
system.mem_ctrls.wrQLenPdf::42                      0                       # What write queue length does an incoming req see
system.mem_ctrls.wrQLenPdf::43                      0                       # What write queue length does an incoming req see
system.mem_ctrls.wrQLenPdf::44                      0                       # What write queue length does an incoming req see
system.mem_ctrls.wrQLenPdf::45                      0                       # What write queue length does an incoming req see
system.mem_ctrls.wrQLenPdf::46                      0                       # What write queue length does an incoming req see
system.mem_ctrls.wrQLenPdf::47                      0                       # What write queue length does an incoming req see
system.mem_ctrls.wrQLenPdf::48                      0                       # What write queue length does an incoming req see
system.mem_ctrls.wrQLenPdf::49                      0                       # What write queue length does an incoming req see
system.mem_ctrls.wrQLenPdf::50                      0                       # What write queue length does an incoming req see
system.mem_ctrls.wrQLenPdf::51                      0                       # What write queue length does an incoming req see
system.mem_ctrls.wrQLenPdf::52                      0                       # What write queue length does an incoming req see
system.mem_ctrls.wrQLenPdf::53                      0                       # What write queue length does an incoming req see
system.mem_ctrls.wrQLenPdf::54                      0                       # What write queue length does an incoming req see
system.mem_ctrls.wrQLenPdf::55                      0                       # What write queue length does an incoming req see
system.mem_ctrls.wrQLenPdf::56                      0                       # What write queue length does an incoming req see
system.mem_ctrls.wrQLenPdf::57                      0                       # What write queue length does an incoming req see
system.mem_ctrls.wrQLenPdf::58                      0                       # What write queue length does an incoming req see
system.mem_ctrls.wrQLenPdf::59                      0                       # What write queue length does an incoming req see
system.mem_ctrls.wrQLenPdf::60                      0                       # What write queue length does an incoming req see
system.mem_ctrls.wrQLenPdf::61                      0                       # What write queue length does an incoming req see
system.mem_ctrls.wrQLenPdf::62                      0                       # What write queue length does an incoming req see
system.mem_ctrls.wrQLenPdf::63                      0                       # What write queue length does an incoming req see
system.mem_ctrls.bytesPerActivate::samples       545940                       # Bytes accessed per row activation
system.mem_ctrls.bytesPerActivate::mean    115.321801                       # Bytes accessed per row activation
system.mem_ctrls.bytesPerActivate::gmean    86.806785                       # Bytes accessed per row activation
system.mem_ctrls.bytesPerActivate::stdev   145.520919                       # Bytes accessed per row activation
system.mem_ctrls.bytesPerActivate::0-127       401439     73.53%     73.53% # Bytes accessed per row activation
system.mem_ctrls.bytesPerActivate::128-255        98772     18.09%     91.62% # Bytes accessed per row activation
system.mem_ctrls.bytesPerActivate::256-383        18217      3.34%     94.96% # Bytes accessed per row activation
system.mem_ctrls.bytesPerActivate::384-511         5938      1.09%     96.05% # Bytes accessed per row activation
system.mem_ctrls.bytesPerActivate::512-639        11484      2.10%     98.15% # Bytes accessed per row activation
system.mem_ctrls.bytesPerActivate::640-767          823      0.15%     98.30% # Bytes accessed per row activation
system.mem_ctrls.bytesPerActivate::768-895          924      0.17%     98.47% # Bytes accessed per row activation
system.mem_ctrls.bytesPerActivate::896-1023          443      0.08%     98.55% # Bytes accessed per row activation
system.mem_ctrls.bytesPerActivate::1024-1151         7900      1.45%    100.00% # Bytes accessed per row activation
system.mem_ctrls.bytesPerActivate::total       545940                       # Bytes accessed per row activation
system.mem_ctrls.rdPerTurnAround::samples        21130                       # Reads before turning the bus around for writes
system.mem_ctrls.rdPerTurnAround::mean      29.058069                       # Reads before turning the bus around for writes
system.mem_ctrls.rdPerTurnAround::stdev    205.814739                       # Reads before turning the bus around for writes
system.mem_ctrls.rdPerTurnAround::0-1023        21097     99.84%     99.84% # Reads before turning the bus around for writes
system.mem_ctrls.rdPerTurnAround::1024-2047           30      0.14%     99.99% # Reads before turning the bus around for writes
system.mem_ctrls.rdPerTurnAround::2048-3071            1      0.00%     99.99% # Reads before turning the bus around for writes
system.mem_ctrls.rdPerTurnAround::3072-4095            1      0.00%    100.00% # Reads before turning the bus around for writes
system.mem_ctrls.rdPerTurnAround::27648-28671            1      0.00%    100.00% # Reads before turning the bus around for writes
system.mem_ctrls.rdPerTurnAround::total         21130                       # Reads before turning the bus around for writes
system.mem_ctrls.wrPerTurnAround::samples        21130                       # Writes before turning the bus around for reads
system.mem_ctrls.wrPerTurnAround::mean      17.475296                       # Writes before turning the bus around for reads
system.mem_ctrls.wrPerTurnAround::gmean     17.443394                       # Writes before turning the bus around for reads
system.mem_ctrls.wrPerTurnAround::stdev      1.046905                       # Writes before turning the bus around for reads
system.mem_ctrls.wrPerTurnAround::16             6444     30.50%     30.50% # Writes before turning the bus around for reads
system.mem_ctrls.wrPerTurnAround::17              506      2.39%     32.89% # Writes before turning the bus around for reads
system.mem_ctrls.wrPerTurnAround::18            12041     56.99%     89.88% # Writes before turning the bus around for reads
system.mem_ctrls.wrPerTurnAround::19             1988      9.41%     99.29% # Writes before turning the bus around for reads
system.mem_ctrls.wrPerTurnAround::20              139      0.66%     99.94% # Writes before turning the bus around for reads
system.mem_ctrls.wrPerTurnAround::21                9      0.04%     99.99% # Writes before turning the bus around for reads
system.mem_ctrls.wrPerTurnAround::22                2      0.01%    100.00% # Writes before turning the bus around for reads
system.mem_ctrls.wrPerTurnAround::24                1      0.00%    100.00% # Writes before turning the bus around for reads
system.mem_ctrls.wrPerTurnAround::total         21130                       # Writes before turning the bus around for reads
system.mem_ctrls.totQLat                   8998752750                       # Total ticks spent queuing
system.mem_ctrls.totMemAccLat             20520215250                       # Total ticks spent from burst creation until serviced by the DRAM
system.mem_ctrls.totBusLat                 3072390000                       # Total ticks spent in databus transfers
system.mem_ctrls.avgQLat                     14644.55                       # Average queueing delay per DRAM burst
system.mem_ctrls.avgBusLat                    5000.00                       # Average bus latency per DRAM burst
system.mem_ctrls.avgMemAccLat                33394.55                       # Average memory access latency per DRAM burst
system.mem_ctrls.avgRdBW                        37.40                       # Average DRAM read bandwidth in MiByte/s
system.mem_ctrls.avgWrBW                        22.47                       # Average achieved write bandwidth in MiByte/s
system.mem_ctrls.avgRdBWSys                     37.47                       # Average system read bandwidth in MiByte/s
system.mem_ctrls.avgWrBWSys                     22.48                       # Average system write bandwidth in MiByte/s
system.mem_ctrls.peakBW                      12800.00                       # Theoretical peak bandwidth in MiByte/s
system.mem_ctrls.busUtil                         0.47                       # Data bus utilization in percentage
system.mem_ctrls.busUtilRead                     0.29                       # Data bus utilization in percentage for reads
system.mem_ctrls.busUtilWrite                    0.18                       # Data bus utilization in percentage for writes
system.mem_ctrls.avgRdQLen                       1.00                       # Average read queue length when enqueuing
system.mem_ctrls.avgWrQLen                      24.62                       # Average write queue length when enqueuing
system.mem_ctrls.readRowHits                   297030                       # Number of row buffer hits during reads
system.mem_ctrls.writeRowHits                  140761                       # Number of row buffer hits during writes
system.mem_ctrls.readRowHitRate                 48.34                       # Row buffer hit rate for reads
system.mem_ctrls.writeRowHitRate                38.12                       # Row buffer hit rate for writes
system.mem_ctrls.avgGap                    1067647.35                       # Average gap between requests
system.mem_ctrls.pageHitRate                    44.50                       # Row buffer hit rate, read and write combined
system.mem_ctrls_0.actEnergy               2038954680                       # Energy for activate commands per rank (pJ)
system.mem_ctrls_0.preEnergy               1112524875                       # Energy for precharge commands per rank (pJ)
system.mem_ctrls_0.readEnergy              2380903200                       # Energy for read commands per rank (pJ)
system.mem_ctrls_0.writeEnergy             1172238480                       # Energy for write commands per rank (pJ)
system.mem_ctrls_0.refreshEnergy          68680519440                       # Energy for refresh commands per rank (pJ)
system.mem_ctrls_0.actBackEnergy         205177970070                       # Energy for active background per rank (pJ)
system.mem_ctrls_0.preBackEnergy         450934638000                       # Energy for precharge background per rank (pJ)
system.mem_ctrls_0.totalEnergy           731497748745                       # Total energy per rank (pJ)
system.mem_ctrls_0.averagePower            695.653822                       # Core power per rank (mW)
system.mem_ctrls_0.memoryStateTime::IDLE 748968350250                       # Time in different power states
system.mem_ctrls_0.memoryStateTime::REF   35112740000                       # Time in different power states
system.mem_ctrls_0.memoryStateTime::PRE_PDN            0                       # Time in different power states
system.mem_ctrls_0.memoryStateTime::ACT  267444446000                       # Time in different power states
system.mem_ctrls_0.memoryStateTime::ACT_PDN            0                       # Time in different power states
system.mem_ctrls_1.actEnergy               2088351720                       # Energy for activate commands per rank (pJ)
system.mem_ctrls_1.preEnergy               1139477625                       # Energy for precharge commands per rank (pJ)
system.mem_ctrls_1.readEnergy              2412025200                       # Energy for read commands per rank (pJ)
system.mem_ctrls_1.writeEnergy             1220520960                       # Energy for write commands per rank (pJ)
system.mem_ctrls_1.refreshEnergy          68680519440                       # Energy for refresh commands per rank (pJ)
system.mem_ctrls_1.actBackEnergy         205272434745                       # Energy for active background per rank (pJ)
system.mem_ctrls_1.preBackEnergy         450851774250                       # Energy for precharge background per rank (pJ)
system.mem_ctrls_1.totalEnergy           731665103940                       # Total energy per rank (pJ)
system.mem_ctrls_1.averagePower            695.812977                       # Core power per rank (mW)
system.mem_ctrls_1.memoryStateTime::IDLE 748822089000                       # Time in different power states
system.mem_ctrls_1.memoryStateTime::REF   35112740000                       # Time in different power states
system.mem_ctrls_1.memoryStateTime::PRE_PDN            0                       # Time in different power states
system.mem_ctrls_1.memoryStateTime::ACT  267590707250                       # Time in different power states
system.mem_ctrls_1.memoryStateTime::ACT_PDN            0                       # Time in different power states
system.cpu_voltage_domain.voltage                   1                       # Voltage in Volts
system.cpu_clk_domain.clock                       500                       # Clock period in ticks
system.cpu.apic_clk_domain.clock                 8000                       # Clock period in ticks
system.cpu.workload.num_syscalls                   86                       # Number of system calls
system.cpu.numCycles                       2103059435                       # number of cpu cycles simulated
system.cpu.numWorkItemsStarted                      0                       # number of work items this cpu started
system.cpu.numWorkItemsCompleted                    0                       # number of work items this cpu completed
system.cpu.committedInsts                   500000000                       # Number of instructions committed
system.cpu.committedOps                     730450481                       # Number of ops (including micro ops) committed
system.cpu.num_int_alu_accesses             729688887                       # Number of integer alu accesses
system.cpu.num_fp_alu_accesses                    761                       # Number of float alu accesses
system.cpu.num_func_calls                     1453959                       # number of times a function call or return occured
system.cpu.num_conditional_control_insts     31770494                       # number of instructions that are conditional controls
system.cpu.num_int_insts                    729688887                       # number of integer instructions
system.cpu.num_fp_insts                           761                       # number of float instructions
system.cpu.num_int_register_reads          1698743312                       # number of times the integer registers were read
system.cpu.num_int_register_writes          621892930                       # number of times the integer registers were written
system.cpu.num_fp_register_reads                 1183                       # number of times the floating registers were read
system.cpu.num_fp_register_writes                 497                       # number of times the floating registers were written
system.cpu.num_cc_register_reads            180840590                       # number of times the CC registers were read
system.cpu.num_cc_register_writes           276245123                       # number of times the CC registers were written
system.cpu.num_mem_refs                     295985437                       # number of memory refs
system.cpu.num_load_insts                   225946734                       # Number of load instructions
system.cpu.num_store_insts                   70038703                       # Number of store instructions
system.cpu.num_idle_cycles                          0                       # Number of idle cycles
system.cpu.num_busy_cycles                 2103059435                       # Number of busy cycles
system.cpu.not_idle_fraction                        1                       # Percentage of non-idle cycles
system.cpu.idle_fraction                            0                       # Percentage of idle cycles
system.cpu.Branches                          37843290                       # Number of branches fetched
system.cpu.op_class::No_OpClass                 94739      0.01%      0.01% # Class of executed instruction
system.cpu.op_class::IntAlu                 434349056     59.46%     59.48% # Class of executed instruction
system.cpu.op_class::IntMult                    20662      0.00%     59.48% # Class of executed instruction
system.cpu.op_class::IntDiv                       119      0.00%     59.48% # Class of executed instruction
system.cpu.op_class::FloatAdd                     468      0.00%     59.48% # Class of executed instruction
system.cpu.op_class::FloatCmp                       0      0.00%     59.48% # Class of executed instruction
system.cpu.op_class::FloatCvt                       0      0.00%     59.48% # Class of executed instruction
system.cpu.op_class::FloatMult                      0      0.00%     59.48% # Class of executed instruction
system.cpu.op_class::FloatDiv                       0      0.00%     59.48% # Class of executed instruction
system.cpu.op_class::FloatSqrt                      0      0.00%     59.48% # Class of executed instruction
system.cpu.op_class::SimdAdd                        0      0.00%     59.48% # Class of executed instruction
system.cpu.op_class::SimdAddAcc                     0      0.00%     59.48% # Class of executed instruction
system.cpu.op_class::SimdAlu                        0      0.00%     59.48% # Class of executed instruction
system.cpu.op_class::SimdCmp                        0      0.00%     59.48% # Class of executed instruction
system.cpu.op_class::SimdCvt                        0      0.00%     59.48% # Class of executed instruction
system.cpu.op_class::SimdMisc                       0      0.00%     59.48% # Class of executed instruction
system.cpu.op_class::SimdMult                       0      0.00%     59.48% # Class of executed instruction
system.cpu.op_class::SimdMultAcc                    0      0.00%     59.48% # Class of executed instruction
system.cpu.op_class::SimdShift                      0      0.00%     59.48% # Class of executed instruction
system.cpu.op_class::SimdShiftAcc                   0      0.00%     59.48% # Class of executed instruction
system.cpu.op_class::SimdSqrt                       0      0.00%     59.48% # Class of executed instruction
system.cpu.op_class::SimdFloatAdd                   0      0.00%     59.48% # Class of executed instruction
system.cpu.op_class::SimdFloatAlu                   0      0.00%     59.48% # Class of executed instruction
system.cpu.op_class::SimdFloatCmp                   0      0.00%     59.48% # Class of executed instruction
system.cpu.op_class::SimdFloatCvt                   0      0.00%     59.48% # Class of executed instruction
system.cpu.op_class::SimdFloatDiv                   0      0.00%     59.48% # Class of executed instruction
system.cpu.op_class::SimdFloatMisc                  0      0.00%     59.48% # Class of executed instruction
system.cpu.op_class::SimdFloatMult                  0      0.00%     59.48% # Class of executed instruction
system.cpu.op_class::SimdFloatMultAcc               0      0.00%     59.48% # Class of executed instruction
system.cpu.op_class::SimdFloatSqrt                  0      0.00%     59.48% # Class of executed instruction
system.cpu.op_class::MemRead                225946734     30.93%     90.41% # Class of executed instruction
system.cpu.op_class::MemWrite                70038703      9.59%    100.00% # Class of executed instruction
system.cpu.op_class::IprAccess                      0      0.00%    100.00% # Class of executed instruction
system.cpu.op_class::InstPrefetch                   0      0.00%    100.00% # Class of executed instruction
system.cpu.op_class::total                  730450481                       # Class of executed instruction
system.cpu.dcache.tags.replacements           2042531                       # number of replacements
system.cpu.dcache.tags.tagsinuse          2042.151176                       # Cycle average of tags in use
system.cpu.dcache.tags.total_refs           293940866                       # Total number of references to valid blocks.
system.cpu.dcache.tags.sampled_refs           2044579                       # Sample count of references to valid blocks.
system.cpu.dcache.tags.avg_refs            143.765962                       # Average number of references to valid blocks.
system.cpu.dcache.tags.warmup_cycle        3525446500                       # Cycle when the warmup percentage was hit.
system.cpu.dcache.tags.occ_blocks::cpu.data  2042.151176                       # Average occupied blocks per requestor
system.cpu.dcache.tags.occ_percent::cpu.data     0.997144                       # Average percentage of cache occupancy
system.cpu.dcache.tags.occ_percent::total     0.997144                       # Average percentage of cache occupancy
system.cpu.dcache.tags.occ_task_id_blocks::1024         2048                       # Occupied blocks per task id
system.cpu.dcache.tags.age_task_id_blocks_1024::1            2                       # Occupied blocks per task id
system.cpu.dcache.tags.age_task_id_blocks_1024::2           16                       # Occupied blocks per task id
system.cpu.dcache.tags.age_task_id_blocks_1024::3         1422                       # Occupied blocks per task id
system.cpu.dcache.tags.age_task_id_blocks_1024::4          608                       # Occupied blocks per task id
system.cpu.dcache.tags.occ_task_id_percent::1024            1                       # Percentage of cache occupancy per task id
system.cpu.dcache.tags.tag_accesses         594015469                       # Number of tag accesses
system.cpu.dcache.tags.data_accesses        594015469                       # Number of data accesses
system.cpu.dcache.ReadReq_hits::cpu.data    224491166                       # number of ReadReq hits
system.cpu.dcache.ReadReq_hits::total       224491166                       # number of ReadReq hits
system.cpu.dcache.WriteReq_hits::cpu.data     69449700                       # number of WriteReq hits
system.cpu.dcache.WriteReq_hits::total       69449700                       # number of WriteReq hits
system.cpu.dcache.demand_hits::cpu.data     293940866                       # number of demand (read+write) hits
system.cpu.dcache.demand_hits::total        293940866                       # number of demand (read+write) hits
system.cpu.dcache.overall_hits::cpu.data    293940866                       # number of overall hits
system.cpu.dcache.overall_hits::total       293940866                       # number of overall hits
system.cpu.dcache.ReadReq_misses::cpu.data      1439192                       # number of ReadReq misses
system.cpu.dcache.ReadReq_misses::total       1439192                       # number of ReadReq misses
system.cpu.dcache.WriteReq_misses::cpu.data       589003                       # number of WriteReq misses
system.cpu.dcache.WriteReq_misses::total       589003                       # number of WriteReq misses
system.cpu.dcache.SoftPFReq_misses::cpu.data        16384                       # number of SoftPFReq misses
system.cpu.dcache.SoftPFReq_misses::total        16384                       # number of SoftPFReq misses
system.cpu.dcache.demand_misses::cpu.data      2028195                       # number of demand (read+write) misses
system.cpu.dcache.demand_misses::total        2028195                       # number of demand (read+write) misses
system.cpu.dcache.overall_misses::cpu.data      2044579                       # number of overall misses
system.cpu.dcache.overall_misses::total       2044579                       # number of overall misses
system.cpu.dcache.ReadReq_miss_latency::cpu.data  39951961000                       # number of ReadReq miss cycles
system.cpu.dcache.ReadReq_miss_latency::total  39951961000                       # number of ReadReq miss cycles
system.cpu.dcache.WriteReq_miss_latency::cpu.data  30037275000                       # number of WriteReq miss cycles
system.cpu.dcache.WriteReq_miss_latency::total  30037275000                       # number of WriteReq miss cycles
system.cpu.dcache.demand_miss_latency::cpu.data  69989236000                       # number of demand (read+write) miss cycles
system.cpu.dcache.demand_miss_latency::total  69989236000                       # number of demand (read+write) miss cycles
system.cpu.dcache.overall_miss_latency::cpu.data  69989236000                       # number of overall miss cycles
system.cpu.dcache.overall_miss_latency::total  69989236000                       # number of overall miss cycles
system.cpu.dcache.ReadReq_accesses::cpu.data    225930358                       # number of ReadReq accesses(hits+misses)
system.cpu.dcache.ReadReq_accesses::total    225930358                       # number of ReadReq accesses(hits+misses)
system.cpu.dcache.WriteReq_accesses::cpu.data     70038703                       # number of WriteReq accesses(hits+misses)
system.cpu.dcache.WriteReq_accesses::total     70038703                       # number of WriteReq accesses(hits+misses)
system.cpu.dcache.SoftPFReq_accesses::cpu.data        16384                       # number of SoftPFReq accesses(hits+misses)
system.cpu.dcache.SoftPFReq_accesses::total        16384                       # number of SoftPFReq accesses(hits+misses)
system.cpu.dcache.demand_accesses::cpu.data    295969061                       # number of demand (read+write) accesses
system.cpu.dcache.demand_accesses::total    295969061                       # number of demand (read+write) accesses
system.cpu.dcache.overall_accesses::cpu.data    295985445                       # number of overall (read+write) accesses
system.cpu.dcache.overall_accesses::total    295985445                       # number of overall (read+write) accesses
system.cpu.dcache.ReadReq_miss_rate::cpu.data     0.006370                       # miss rate for ReadReq accesses
system.cpu.dcache.ReadReq_miss_rate::total     0.006370                       # miss rate for ReadReq accesses
system.cpu.dcache.WriteReq_miss_rate::cpu.data     0.008410                       # miss rate for WriteReq accesses
system.cpu.dcache.WriteReq_miss_rate::total     0.008410                       # miss rate for WriteReq accesses
system.cpu.dcache.SoftPFReq_miss_rate::cpu.data            1                       # miss rate for SoftPFReq accesses
system.cpu.dcache.SoftPFReq_miss_rate::total            1                       # miss rate for SoftPFReq accesses
system.cpu.dcache.demand_miss_rate::cpu.data     0.006853                       # miss rate for demand accesses
system.cpu.dcache.demand_miss_rate::total     0.006853                       # miss rate for demand accesses
system.cpu.dcache.overall_miss_rate::cpu.data     0.006908                       # miss rate for overall accesses
system.cpu.dcache.overall_miss_rate::total     0.006908                       # miss rate for overall accesses
system.cpu.dcache.ReadReq_avg_miss_latency::cpu.data 27759.993802                       # average ReadReq miss latency
system.cpu.dcache.ReadReq_avg_miss_latency::total 27759.993802                       # average ReadReq miss latency
system.cpu.dcache.WriteReq_avg_miss_latency::cpu.data 50996.811561                       # average WriteReq miss latency
system.cpu.dcache.WriteReq_avg_miss_latency::total 50996.811561                       # average WriteReq miss latency
system.cpu.dcache.demand_avg_miss_latency::cpu.data 34508.139503                       # average overall miss latency
system.cpu.dcache.demand_avg_miss_latency::total 34508.139503                       # average overall miss latency
system.cpu.dcache.overall_avg_miss_latency::cpu.data 34231.612474                       # average overall miss latency
system.cpu.dcache.overall_avg_miss_latency::total 34231.612474                       # average overall miss latency
system.cpu.dcache.blocked_cycles::no_mshrs       233650                       # number of cycles access was blocked
system.cpu.dcache.blocked_cycles::no_targets            0                       # number of cycles access was blocked
system.cpu.dcache.blocked::no_mshrs              5669                       # number of cycles access was blocked
system.cpu.dcache.blocked::no_targets               0                       # number of cycles access was blocked
system.cpu.dcache.avg_blocked_cycles::no_mshrs    41.215382                       # average number of cycles each access was blocked
system.cpu.dcache.avg_blocked_cycles::no_targets          nan                       # average number of cycles each access was blocked
system.cpu.dcache.fast_writes                       0                       # number of fast writes performed
system.cpu.dcache.cache_copies                      0                       # number of cache copies performed
system.cpu.dcache.writebacks::writebacks       956446                       # number of writebacks
system.cpu.dcache.writebacks::total            956446                       # number of writebacks
system.cpu.dcache.ReadReq_mshr_misses::cpu.data      1439192                       # number of ReadReq MSHR misses
system.cpu.dcache.ReadReq_mshr_misses::total      1439192                       # number of ReadReq MSHR misses
system.cpu.dcache.WriteReq_mshr_misses::cpu.data       589003                       # number of WriteReq MSHR misses
system.cpu.dcache.WriteReq_mshr_misses::total       589003                       # number of WriteReq MSHR misses
system.cpu.dcache.SoftPFReq_mshr_misses::cpu.data        16384                       # number of SoftPFReq MSHR misses
system.cpu.dcache.SoftPFReq_mshr_misses::total        16384                       # number of SoftPFReq MSHR misses
system.cpu.dcache.demand_mshr_misses::cpu.data      2028195                       # number of demand (read+write) MSHR misses
system.cpu.dcache.demand_mshr_misses::total      2028195                       # number of demand (read+write) MSHR misses
system.cpu.dcache.overall_mshr_misses::cpu.data      2044579                       # number of overall MSHR misses
system.cpu.dcache.overall_mshr_misses::total      2044579                       # number of overall MSHR misses
system.cpu.dcache.ReadReq_mshr_miss_latency::cpu.data  38512769000                       # number of ReadReq MSHR miss cycles
system.cpu.dcache.ReadReq_mshr_miss_latency::total  38512769000                       # number of ReadReq MSHR miss cycles
system.cpu.dcache.WriteReq_mshr_miss_latency::cpu.data  29448272000                       # number of WriteReq MSHR miss cycles
system.cpu.dcache.WriteReq_mshr_miss_latency::total  29448272000                       # number of WriteReq MSHR miss cycles
system.cpu.dcache.SoftPFReq_mshr_miss_latency::cpu.data   1289196936                       # number of SoftPFReq MSHR miss cycles
system.cpu.dcache.SoftPFReq_mshr_miss_latency::total   1289196936                       # number of SoftPFReq MSHR miss cycles
system.cpu.dcache.demand_mshr_miss_latency::cpu.data  67961041000                       # number of demand (read+write) MSHR miss cycles
system.cpu.dcache.demand_mshr_miss_latency::total  67961041000                       # number of demand (read+write) MSHR miss cycles
system.cpu.dcache.overall_mshr_miss_latency::cpu.data  69250237936                       # number of overall MSHR miss cycles
system.cpu.dcache.overall_mshr_miss_latency::total  69250237936                       # number of overall MSHR miss cycles
system.cpu.dcache.ReadReq_mshr_miss_rate::cpu.data     0.006370                       # mshr miss rate for ReadReq accesses
system.cpu.dcache.ReadReq_mshr_miss_rate::total     0.006370                       # mshr miss rate for ReadReq accesses
system.cpu.dcache.WriteReq_mshr_miss_rate::cpu.data     0.008410                       # mshr miss rate for WriteReq accesses
system.cpu.dcache.WriteReq_mshr_miss_rate::total     0.008410                       # mshr miss rate for WriteReq accesses
system.cpu.dcache.SoftPFReq_mshr_miss_rate::cpu.data            1                       # mshr miss rate for SoftPFReq accesses
system.cpu.dcache.SoftPFReq_mshr_miss_rate::total            1                       # mshr miss rate for SoftPFReq accesses
system.cpu.dcache.demand_mshr_miss_rate::cpu.data     0.006853                       # mshr miss rate for demand accesses
system.cpu.dcache.demand_mshr_miss_rate::total     0.006853                       # mshr miss rate for demand accesses
system.cpu.dcache.overall_mshr_miss_rate::cpu.data     0.006908                       # mshr miss rate for overall accesses
system.cpu.dcache.overall_mshr_miss_rate::total     0.006908                       # mshr miss rate for overall accesses
system.cpu.dcache.ReadReq_avg_mshr_miss_latency::cpu.data 26759.993802                       # average ReadReq mshr miss latency
system.cpu.dcache.ReadReq_avg_mshr_miss_latency::total 26759.993802                       # average ReadReq mshr miss latency
system.cpu.dcache.WriteReq_avg_mshr_miss_latency::cpu.data 49996.811561                       # average WriteReq mshr miss latency
system.cpu.dcache.WriteReq_avg_mshr_miss_latency::total 49996.811561                       # average WriteReq mshr miss latency
system.cpu.dcache.SoftPFReq_avg_mshr_miss_latency::cpu.data 78686.336426                       # average SoftPFReq mshr miss latency
system.cpu.dcache.SoftPFReq_avg_mshr_miss_latency::total 78686.336426                       # average SoftPFReq mshr miss latency
system.cpu.dcache.demand_avg_mshr_miss_latency::cpu.data 33508.139503                       # average overall mshr miss latency
system.cpu.dcache.demand_avg_mshr_miss_latency::total 33508.139503                       # average overall mshr miss latency
system.cpu.dcache.overall_avg_mshr_miss_latency::cpu.data 33870.169818                       # average overall mshr miss latency
system.cpu.dcache.overall_avg_mshr_miss_latency::total 33870.169818                       # average overall mshr miss latency
system.cpu.dcache.no_allocate_misses                0                       # Number of misses that were no-allocate
system.cpu.dtb_walker_cache.tags.replacements            0                       # number of replacements
system.cpu.dtb_walker_cache.tags.tagsinuse            0                       # Cycle average of tags in use
system.cpu.dtb_walker_cache.tags.total_refs            0                       # Total number of references to valid blocks.
system.cpu.dtb_walker_cache.tags.sampled_refs            0                       # Sample count of references to valid blocks.
system.cpu.dtb_walker_cache.tags.avg_refs          nan                       # Average number of references to valid blocks.
system.cpu.dtb_walker_cache.tags.warmup_cycle            0                       # Cycle when the warmup percentage was hit.
system.cpu.dtb_walker_cache.tags.tag_accesses            0                       # Number of tag accesses
system.cpu.dtb_walker_cache.tags.data_accesses            0                       # Number of data accesses
system.cpu.dtb_walker_cache.blocked_cycles::no_mshrs            0                       # number of cycles access was blocked
system.cpu.dtb_walker_cache.blocked_cycles::no_targets            0                       # number of cycles access was blocked
system.cpu.dtb_walker_cache.blocked::no_mshrs            0                       # number of cycles access was blocked
system.cpu.dtb_walker_cache.blocked::no_targets            0                       # number of cycles access was blocked
system.cpu.dtb_walker_cache.avg_blocked_cycles::no_mshrs          nan                       # average number of cycles each access was blocked
system.cpu.dtb_walker_cache.avg_blocked_cycles::no_targets          nan                       # average number of cycles each access was blocked
system.cpu.dtb_walker_cache.fast_writes             0                       # number of fast writes performed
system.cpu.dtb_walker_cache.cache_copies            0                       # number of cache copies performed
system.cpu.dtb_walker_cache.no_allocate_misses            0                       # Number of misses that were no-allocate
system.cpu.icache.tags.replacements                45                       # number of replacements
system.cpu.icache.tags.tagsinuse           670.957347                       # Cycle average of tags in use
system.cpu.icache.tags.total_refs           687396859                       # Total number of references to valid blocks.
system.cpu.icache.tags.sampled_refs              1001                       # Sample count of references to valid blocks.
system.cpu.icache.tags.avg_refs          686710.148851                       # Average number of references to valid blocks.
system.cpu.icache.tags.warmup_cycle                 0                       # Cycle when the warmup percentage was hit.
system.cpu.icache.tags.occ_blocks::cpu.inst   670.957347                       # Average occupied blocks per requestor
system.cpu.icache.tags.occ_percent::cpu.inst     0.327616                       # Average percentage of cache occupancy
system.cpu.icache.tags.occ_percent::total     0.327616                       # Average percentage of cache occupancy
system.cpu.icache.tags.occ_task_id_blocks::1024          956                       # Occupied blocks per task id
system.cpu.icache.tags.age_task_id_blocks_1024::1            7                       # Occupied blocks per task id
system.cpu.icache.tags.age_task_id_blocks_1024::3           25                       # Occupied blocks per task id
system.cpu.icache.tags.age_task_id_blocks_1024::4          924                       # Occupied blocks per task id
system.cpu.icache.tags.occ_task_id_percent::1024     0.466797                       # Percentage of cache occupancy per task id
system.cpu.icache.tags.tag_accesses        1374796721                       # Number of tag accesses
system.cpu.icache.tags.data_accesses       1374796721                       # Number of data accesses
system.cpu.icache.ReadReq_hits::cpu.inst    687396859                       # number of ReadReq hits
system.cpu.icache.ReadReq_hits::total       687396859                       # number of ReadReq hits
system.cpu.icache.demand_hits::cpu.inst     687396859                       # number of demand (read+write) hits
system.cpu.icache.demand_hits::total        687396859                       # number of demand (read+write) hits
system.cpu.icache.overall_hits::cpu.inst    687396859                       # number of overall hits
system.cpu.icache.overall_hits::total       687396859                       # number of overall hits
system.cpu.icache.ReadReq_misses::cpu.inst         1001                       # number of ReadReq misses
system.cpu.icache.ReadReq_misses::total          1001                       # number of ReadReq misses
system.cpu.icache.demand_misses::cpu.inst         1001                       # number of demand (read+write) misses
system.cpu.icache.demand_misses::total           1001                       # number of demand (read+write) misses
system.cpu.icache.overall_misses::cpu.inst         1001                       # number of overall misses
system.cpu.icache.overall_misses::total          1001                       # number of overall misses
system.cpu.icache.ReadReq_miss_latency::cpu.inst     77747000                       # number of ReadReq miss cycles
system.cpu.icache.ReadReq_miss_latency::total     77747000                       # number of ReadReq miss cycles
system.cpu.icache.demand_miss_latency::cpu.inst     77747000                       # number of demand (read+write) miss cycles
system.cpu.icache.demand_miss_latency::total     77747000                       # number of demand (read+write) miss cycles
system.cpu.icache.overall_miss_latency::cpu.inst     77747000                       # number of overall miss cycles
system.cpu.icache.overall_miss_latency::total     77747000                       # number of overall miss cycles
system.cpu.icache.ReadReq_accesses::cpu.inst    687397860                       # number of ReadReq accesses(hits+misses)
system.cpu.icache.ReadReq_accesses::total    687397860                       # number of ReadReq accesses(hits+misses)
system.cpu.icache.demand_accesses::cpu.inst    687397860                       # number of demand (read+write) accesses
system.cpu.icache.demand_accesses::total    687397860                       # number of demand (read+write) accesses
system.cpu.icache.overall_accesses::cpu.inst    687397860                       # number of overall (read+write) accesses
system.cpu.icache.overall_accesses::total    687397860                       # number of overall (read+write) accesses
system.cpu.icache.ReadReq_miss_rate::cpu.inst     0.000001                       # miss rate for ReadReq accesses
system.cpu.icache.ReadReq_miss_rate::total     0.000001                       # miss rate for ReadReq accesses
system.cpu.icache.demand_miss_rate::cpu.inst     0.000001                       # miss rate for demand accesses
system.cpu.icache.demand_miss_rate::total     0.000001                       # miss rate for demand accesses
system.cpu.icache.overall_miss_rate::cpu.inst     0.000001                       # miss rate for overall accesses
system.cpu.icache.overall_miss_rate::total     0.000001                       # miss rate for overall accesses
system.cpu.icache.ReadReq_avg_miss_latency::cpu.inst 77669.330669                       # average ReadReq miss latency
system.cpu.icache.ReadReq_avg_miss_latency::total 77669.330669                       # average ReadReq miss latency
system.cpu.icache.demand_avg_miss_latency::cpu.inst 77669.330669                       # average overall miss latency
system.cpu.icache.demand_avg_miss_latency::total 77669.330669                       # average overall miss latency
system.cpu.icache.overall_avg_miss_latency::cpu.inst 77669.330669                       # average overall miss latency
system.cpu.icache.overall_avg_miss_latency::total 77669.330669                       # average overall miss latency
system.cpu.icache.blocked_cycles::no_mshrs            0                       # number of cycles access was blocked
system.cpu.icache.blocked_cycles::no_targets            0                       # number of cycles access was blocked
system.cpu.icache.blocked::no_mshrs                 0                       # number of cycles access was blocked
system.cpu.icache.blocked::no_targets               0                       # number of cycles access was blocked
system.cpu.icache.avg_blocked_cycles::no_mshrs          nan                       # average number of cycles each access was blocked
system.cpu.icache.avg_blocked_cycles::no_targets          nan                       # average number of cycles each access was blocked
system.cpu.icache.fast_writes                       0                       # number of fast writes performed
system.cpu.icache.cache_copies                      0                       # number of cache copies performed
system.cpu.icache.writebacks::writebacks           45                       # number of writebacks
system.cpu.icache.writebacks::total                45                       # number of writebacks
system.cpu.icache.ReadReq_mshr_misses::cpu.inst         1001                       # number of ReadReq MSHR misses
system.cpu.icache.ReadReq_mshr_misses::total         1001                       # number of ReadReq MSHR misses
system.cpu.icache.demand_mshr_misses::cpu.inst         1001                       # number of demand (read+write) MSHR misses
system.cpu.icache.demand_mshr_misses::total         1001                       # number of demand (read+write) MSHR misses
system.cpu.icache.overall_mshr_misses::cpu.inst         1001                       # number of overall MSHR misses
system.cpu.icache.overall_mshr_misses::total         1001                       # number of overall MSHR misses
system.cpu.icache.ReadReq_mshr_miss_latency::cpu.inst     76746000                       # number of ReadReq MSHR miss cycles
system.cpu.icache.ReadReq_mshr_miss_latency::total     76746000                       # number of ReadReq MSHR miss cycles
system.cpu.icache.demand_mshr_miss_latency::cpu.inst     76746000                       # number of demand (read+write) MSHR miss cycles
system.cpu.icache.demand_mshr_miss_latency::total     76746000                       # number of demand (read+write) MSHR miss cycles
system.cpu.icache.overall_mshr_miss_latency::cpu.inst     76746000                       # number of overall MSHR miss cycles
system.cpu.icache.overall_mshr_miss_latency::total     76746000                       # number of overall MSHR miss cycles
system.cpu.icache.ReadReq_mshr_miss_rate::cpu.inst     0.000001                       # mshr miss rate for ReadReq accesses
system.cpu.icache.ReadReq_mshr_miss_rate::total     0.000001                       # mshr miss rate for ReadReq accesses
system.cpu.icache.demand_mshr_miss_rate::cpu.inst     0.000001                       # mshr miss rate for demand accesses
system.cpu.icache.demand_mshr_miss_rate::total     0.000001                       # mshr miss rate for demand accesses
system.cpu.icache.overall_mshr_miss_rate::cpu.inst     0.000001                       # mshr miss rate for overall accesses
system.cpu.icache.overall_mshr_miss_rate::total     0.000001                       # mshr miss rate for overall accesses
system.cpu.icache.ReadReq_avg_mshr_miss_latency::cpu.inst 76669.330669                       # average ReadReq mshr miss latency
system.cpu.icache.ReadReq_avg_mshr_miss_latency::total 76669.330669                       # average ReadReq mshr miss latency
system.cpu.icache.demand_avg_mshr_miss_latency::cpu.inst 76669.330669                       # average overall mshr miss latency
system.cpu.icache.demand_avg_mshr_miss_latency::total 76669.330669                       # average overall mshr miss latency
system.cpu.icache.overall_avg_mshr_miss_latency::cpu.inst 76669.330669                       # average overall mshr miss latency
system.cpu.icache.overall_avg_mshr_miss_latency::total 76669.330669                       # average overall mshr miss latency
system.cpu.icache.no_allocate_misses                0                       # Number of misses that were no-allocate
system.cpu.itb_walker_cache.tags.replacements            0                       # number of replacements
system.cpu.itb_walker_cache.tags.tagsinuse            0                       # Cycle average of tags in use
system.cpu.itb_walker_cache.tags.total_refs            0                       # Total number of references to valid blocks.
system.cpu.itb_walker_cache.tags.sampled_refs            0                       # Sample count of references to valid blocks.
system.cpu.itb_walker_cache.tags.avg_refs          nan                       # Average number of references to valid blocks.
system.cpu.itb_walker_cache.tags.warmup_cycle            0                       # Cycle when the warmup percentage was hit.
system.cpu.itb_walker_cache.tags.tag_accesses            0                       # Number of tag accesses
system.cpu.itb_walker_cache.tags.data_accesses            0                       # Number of data accesses
system.cpu.itb_walker_cache.blocked_cycles::no_mshrs            0                       # number of cycles access was blocked
system.cpu.itb_walker_cache.blocked_cycles::no_targets            0                       # number of cycles access was blocked
system.cpu.itb_walker_cache.blocked::no_mshrs            0                       # number of cycles access was blocked
system.cpu.itb_walker_cache.blocked::no_targets            0                       # number of cycles access was blocked
system.cpu.itb_walker_cache.avg_blocked_cycles::no_mshrs          nan                       # average number of cycles each access was blocked
system.cpu.itb_walker_cache.avg_blocked_cycles::no_targets          nan                       # average number of cycles each access was blocked
system.cpu.itb_walker_cache.fast_writes             0                       # number of fast writes performed
system.cpu.itb_walker_cache.cache_copies            0                       # number of cache copies performed
system.cpu.itb_walker_cache.no_allocate_misses            0                       # Number of misses that were no-allocate
system.l2.tags.replacements                    598891                       # number of replacements
system.l2.tags.tagsinuse                 16312.275311                       # Cycle average of tags in use
system.l2.tags.total_refs                     2883707                       # Total number of references to valid blocks.
system.l2.tags.sampled_refs                    615207                       # Sample count of references to valid blocks.
system.l2.tags.avg_refs                      4.687377                       # Average number of references to valid blocks.
system.l2.tags.warmup_cycle                3949699000                       # Cycle when the warmup percentage was hit.
system.l2.tags.occ_blocks::writebacks     6133.340631                       # Average occupied blocks per requestor
system.l2.tags.occ_blocks::cpu.inst         47.157066                       # Average occupied blocks per requestor
system.l2.tags.occ_blocks::cpu.data      10131.777614                       # Average occupied blocks per requestor
system.l2.tags.occ_percent::writebacks       0.374349                       # Average percentage of cache occupancy
system.l2.tags.occ_percent::cpu.inst         0.002878                       # Average percentage of cache occupancy
system.l2.tags.occ_percent::cpu.data         0.618395                       # Average percentage of cache occupancy
system.l2.tags.occ_percent::total            0.995622                       # Average percentage of cache occupancy
system.l2.tags.occ_task_id_blocks::1024         16316                       # Occupied blocks per task id
system.l2.tags.age_task_id_blocks_1024::1            9                       # Occupied blocks per task id
system.l2.tags.age_task_id_blocks_1024::2           10                       # Occupied blocks per task id
system.l2.tags.age_task_id_blocks_1024::3           38                       # Occupied blocks per task id
system.l2.tags.age_task_id_blocks_1024::4        16259                       # Occupied blocks per task id
system.l2.tags.occ_task_id_percent::1024     0.995850                       # Percentage of cache occupancy per task id
system.l2.tags.tag_accesses                2094339570                       # Number of tag accesses
system.l2.tags.data_accesses               2094339570                       # Number of data accesses
system.l2.WritebackDirty_hits::writebacks       956446                       # number of WritebackDirty hits
system.l2.WritebackDirty_hits::total           956446                       # number of WritebackDirty hits
system.l2.WritebackClean_hits::writebacks           45                       # number of WritebackClean hits
system.l2.WritebackClean_hits::total               45                       # number of WritebackClean hits
system.l2.ReadExReq_hits::cpu.data             286995                       # number of ReadExReq hits
system.l2.ReadExReq_hits::total                286995                       # number of ReadExReq hits
system.l2.ReadCleanReq_hits::cpu.inst               1                       # number of ReadCleanReq hits
system.l2.ReadCleanReq_hits::total                  1                       # number of ReadCleanReq hits
system.l2.ReadSharedReq_hits::cpu.data        1142991                       # number of ReadSharedReq hits
system.l2.ReadSharedReq_hits::total           1142991                       # number of ReadSharedReq hits
system.l2.demand_hits::cpu.inst                     1                       # number of demand (read+write) hits
system.l2.demand_hits::cpu.data               1429986                       # number of demand (read+write) hits
system.l2.demand_hits::total                  1429987                       # number of demand (read+write) hits
system.l2.overall_hits::cpu.inst                    1                       # number of overall hits
system.l2.overall_hits::cpu.data              1429986                       # number of overall hits
system.l2.overall_hits::total                 1429987                       # number of overall hits
system.l2.ReadExReq_misses::cpu.data           302008                       # number of ReadExReq misses
system.l2.ReadExReq_misses::total              302008                       # number of ReadExReq misses
system.l2.ReadCleanReq_misses::cpu.inst          1000                       # number of ReadCleanReq misses
system.l2.ReadCleanReq_misses::total             1000                       # number of ReadCleanReq misses
system.l2.ReadSharedReq_misses::cpu.data       312585                       # number of ReadSharedReq misses
system.l2.ReadSharedReq_misses::total          312585                       # number of ReadSharedReq misses
system.l2.demand_misses::cpu.inst                1000                       # number of demand (read+write) misses
system.l2.demand_misses::cpu.data              614593                       # number of demand (read+write) misses
system.l2.demand_misses::total                 615593                       # number of demand (read+write) misses
system.l2.overall_misses::cpu.inst               1000                       # number of overall misses
system.l2.overall_misses::cpu.data             614593                       # number of overall misses
system.l2.overall_misses::total                615593                       # number of overall misses
system.l2.ReadExReq_miss_latency::cpu.data  25551319000                       # number of ReadExReq miss cycles
system.l2.ReadExReq_miss_latency::total   25551319000                       # number of ReadExReq miss cycles
system.l2.ReadCleanReq_miss_latency::cpu.inst     75232500                       # number of ReadCleanReq miss cycles
system.l2.ReadCleanReq_miss_latency::total     75232500                       # number of ReadCleanReq miss cycles
system.l2.ReadSharedReq_miss_latency::cpu.data  25617088500                       # number of ReadSharedReq miss cycles
system.l2.ReadSharedReq_miss_latency::total  25617088500                       # number of ReadSharedReq miss cycles
system.l2.demand_miss_latency::cpu.inst      75232500                       # number of demand (read+write) miss cycles
system.l2.demand_miss_latency::cpu.data   51168407500                       # number of demand (read+write) miss cycles
system.l2.demand_miss_latency::total      51243640000                       # number of demand (read+write) miss cycles
system.l2.overall_miss_latency::cpu.inst     75232500                       # number of overall miss cycles
system.l2.overall_miss_latency::cpu.data  51168407500                       # number of overall miss cycles
system.l2.overall_miss_latency::total     51243640000                       # number of overall miss cycles
system.l2.WritebackDirty_accesses::writebacks       956446                       # number of WritebackDirty accesses(hits+misses)
system.l2.WritebackDirty_accesses::total       956446                       # number of WritebackDirty accesses(hits+misses)
system.l2.WritebackClean_accesses::writebacks           45                       # number of WritebackClean accesses(hits+misses)
system.l2.WritebackClean_accesses::total           45                       # number of WritebackClean accesses(hits+misses)
system.l2.ReadExReq_accesses::cpu.data         589003                       # number of ReadExReq accesses(hits+misses)
system.l2.ReadExReq_accesses::total            589003                       # number of ReadExReq accesses(hits+misses)
system.l2.ReadCleanReq_accesses::cpu.inst         1001                       # number of ReadCleanReq accesses(hits+misses)
system.l2.ReadCleanReq_accesses::total           1001                       # number of ReadCleanReq accesses(hits+misses)
system.l2.ReadSharedReq_accesses::cpu.data      1455576                       # number of ReadSharedReq accesses(hits+misses)
system.l2.ReadSharedReq_accesses::total       1455576                       # number of ReadSharedReq accesses(hits+misses)
system.l2.demand_accesses::cpu.inst              1001                       # number of demand (read+write) accesses
system.l2.demand_accesses::cpu.data           2044579                       # number of demand (read+write) accesses
system.l2.demand_accesses::total              2045580                       # number of demand (read+write) accesses
system.l2.overall_accesses::cpu.inst             1001                       # number of overall (read+write) accesses
system.l2.overall_accesses::cpu.data          2044579                       # number of overall (read+write) accesses
system.l2.overall_accesses::total             2045580                       # number of overall (read+write) accesses
system.l2.ReadExReq_miss_rate::cpu.data      0.512744                       # miss rate for ReadExReq accesses
system.l2.ReadExReq_miss_rate::total         0.512744                       # miss rate for ReadExReq accesses
system.l2.ReadCleanReq_miss_rate::cpu.inst     0.999001                       # miss rate for ReadCleanReq accesses
system.l2.ReadCleanReq_miss_rate::total      0.999001                       # miss rate for ReadCleanReq accesses
system.l2.ReadSharedReq_miss_rate::cpu.data     0.214750                       # miss rate for ReadSharedReq accesses
system.l2.ReadSharedReq_miss_rate::total     0.214750                       # miss rate for ReadSharedReq accesses
system.l2.demand_miss_rate::cpu.inst         0.999001                       # miss rate for demand accesses
system.l2.demand_miss_rate::cpu.data         0.300596                       # miss rate for demand accesses
system.l2.demand_miss_rate::total            0.300938                       # miss rate for demand accesses
system.l2.overall_miss_rate::cpu.inst        0.999001                       # miss rate for overall accesses
system.l2.overall_miss_rate::cpu.data        0.300596                       # miss rate for overall accesses
system.l2.overall_miss_rate::total           0.300938                       # miss rate for overall accesses
system.l2.ReadExReq_avg_miss_latency::cpu.data 84604.775370                       # average ReadExReq miss latency
system.l2.ReadExReq_avg_miss_latency::total 84604.775370                       # average ReadExReq miss latency
system.l2.ReadCleanReq_avg_miss_latency::cpu.inst 75232.500000                       # average ReadCleanReq miss latency
system.l2.ReadCleanReq_avg_miss_latency::total 75232.500000                       # average ReadCleanReq miss latency
system.l2.ReadSharedReq_avg_miss_latency::cpu.data 81952.392149                       # average ReadSharedReq miss latency
system.l2.ReadSharedReq_avg_miss_latency::total 81952.392149                       # average ReadSharedReq miss latency
system.l2.demand_avg_miss_latency::cpu.inst 75232.500000                       # average overall miss latency
system.l2.demand_avg_miss_latency::cpu.data 83255.760316                       # average overall miss latency
system.l2.demand_avg_miss_latency::total 83242.726932                       # average overall miss latency
system.l2.overall_avg_miss_latency::cpu.inst 75232.500000                       # average overall miss latency
system.l2.overall_avg_miss_latency::cpu.data 83255.760316                       # average overall miss latency
system.l2.overall_avg_miss_latency::total 83242.726932                       # average overall miss latency
system.l2.blocked_cycles::no_mshrs                  0                       # number of cycles access was blocked
system.l2.blocked_cycles::no_targets                0                       # number of cycles access was blocked
system.l2.blocked::no_mshrs                         0                       # number of cycles access was blocked
system.l2.blocked::no_targets                       0                       # number of cycles access was blocked
system.l2.avg_blocked_cycles::no_mshrs            nan                       # average number of cycles each access was blocked
system.l2.avg_blocked_cycles::no_targets          nan                       # average number of cycles each access was blocked
system.l2.fast_writes                               0                       # number of fast writes performed
system.l2.cache_copies                              0                       # number of cache copies performed
system.l2.writebacks::writebacks               369280                       # number of writebacks
system.l2.writebacks::total                    369280                       # number of writebacks
system.l2.CleanEvict_mshr_misses::writebacks           18                       # number of CleanEvict MSHR misses
system.l2.CleanEvict_mshr_misses::total            18                       # number of CleanEvict MSHR misses
system.l2.ReadExReq_mshr_misses::cpu.data       302008                       # number of ReadExReq MSHR misses
system.l2.ReadExReq_mshr_misses::total         302008                       # number of ReadExReq MSHR misses
system.l2.ReadCleanReq_mshr_misses::cpu.inst         1000                       # number of ReadCleanReq MSHR misses
system.l2.ReadCleanReq_mshr_misses::total         1000                       # number of ReadCleanReq MSHR misses
system.l2.ReadSharedReq_mshr_misses::cpu.data       312585                       # number of ReadSharedReq MSHR misses
system.l2.ReadSharedReq_mshr_misses::total       312585                       # number of ReadSharedReq MSHR misses
system.l2.demand_mshr_misses::cpu.inst           1000                       # number of demand (read+write) MSHR misses
system.l2.demand_mshr_misses::cpu.data         614593                       # number of demand (read+write) MSHR misses
system.l2.demand_mshr_misses::total            615593                       # number of demand (read+write) MSHR misses
system.l2.overall_mshr_misses::cpu.inst          1000                       # number of overall MSHR misses
system.l2.overall_mshr_misses::cpu.data        614593                       # number of overall MSHR misses
system.l2.overall_mshr_misses::total           615593                       # number of overall MSHR misses
system.l2.ReadExReq_mshr_miss_latency::cpu.data  22531239000                       # number of ReadExReq MSHR miss cycles
system.l2.ReadExReq_mshr_miss_latency::total  22531239000                       # number of ReadExReq MSHR miss cycles
system.l2.ReadCleanReq_mshr_miss_latency::cpu.inst     65232500                       # number of ReadCleanReq MSHR miss cycles
system.l2.ReadCleanReq_mshr_miss_latency::total     65232500                       # number of ReadCleanReq MSHR miss cycles
system.l2.ReadSharedReq_mshr_miss_latency::cpu.data  22491238500                       # number of ReadSharedReq MSHR miss cycles
system.l2.ReadSharedReq_mshr_miss_latency::total  22491238500                       # number of ReadSharedReq MSHR miss cycles
system.l2.demand_mshr_miss_latency::cpu.inst     65232500                       # number of demand (read+write) MSHR miss cycles
system.l2.demand_mshr_miss_latency::cpu.data  45022477500                       # number of demand (read+write) MSHR miss cycles
system.l2.demand_mshr_miss_latency::total  45087710000                       # number of demand (read+write) MSHR miss cycles
system.l2.overall_mshr_miss_latency::cpu.inst     65232500                       # number of overall MSHR miss cycles
system.l2.overall_mshr_miss_latency::cpu.data  45022477500                       # number of overall MSHR miss cycles
system.l2.overall_mshr_miss_latency::total  45087710000                       # number of overall MSHR miss cycles
system.l2.CleanEvict_mshr_miss_rate::writebacks          inf                       # mshr miss rate for CleanEvict accesses
system.l2.CleanEvict_mshr_miss_rate::total          inf                       # mshr miss rate for CleanEvict accesses
system.l2.ReadExReq_mshr_miss_rate::cpu.data     0.512744                       # mshr miss rate for ReadExReq accesses
system.l2.ReadExReq_mshr_miss_rate::total     0.512744                       # mshr miss rate for ReadExReq accesses
system.l2.ReadCleanReq_mshr_miss_rate::cpu.inst     0.999001                       # mshr miss rate for ReadCleanReq accesses
system.l2.ReadCleanReq_mshr_miss_rate::total     0.999001                       # mshr miss rate for ReadCleanReq accesses
system.l2.ReadSharedReq_mshr_miss_rate::cpu.data     0.214750                       # mshr miss rate for ReadSharedReq accesses
system.l2.ReadSharedReq_mshr_miss_rate::total     0.214750                       # mshr miss rate for ReadSharedReq accesses
system.l2.demand_mshr_miss_rate::cpu.inst     0.999001                       # mshr miss rate for demand accesses
system.l2.demand_mshr_miss_rate::cpu.data     0.300596                       # mshr miss rate for demand accesses
system.l2.demand_mshr_miss_rate::total       0.300938                       # mshr miss rate for demand accesses
system.l2.overall_mshr_miss_rate::cpu.inst     0.999001                       # mshr miss rate for overall accesses
system.l2.overall_mshr_miss_rate::cpu.data     0.300596                       # mshr miss rate for overall accesses
system.l2.overall_mshr_miss_rate::total      0.300938                       # mshr miss rate for overall accesses
system.l2.ReadExReq_avg_mshr_miss_latency::cpu.data 74604.775370                       # average ReadExReq mshr miss latency
system.l2.ReadExReq_avg_mshr_miss_latency::total 74604.775370                       # average ReadExReq mshr miss latency
system.l2.ReadCleanReq_avg_mshr_miss_latency::cpu.inst 65232.500000                       # average ReadCleanReq mshr miss latency
system.l2.ReadCleanReq_avg_mshr_miss_latency::total 65232.500000                       # average ReadCleanReq mshr miss latency
system.l2.ReadSharedReq_avg_mshr_miss_latency::cpu.data 71952.392149                       # average ReadSharedReq mshr miss latency
system.l2.ReadSharedReq_avg_mshr_miss_latency::total 71952.392149                       # average ReadSharedReq mshr miss latency
system.l2.demand_avg_mshr_miss_latency::cpu.inst 65232.500000                       # average overall mshr miss latency
system.l2.demand_avg_mshr_miss_latency::cpu.data 73255.760316                       # average overall mshr miss latency
system.l2.demand_avg_mshr_miss_latency::total 73242.726932                       # average overall mshr miss latency
system.l2.overall_avg_mshr_miss_latency::cpu.inst 65232.500000                       # average overall mshr miss latency
system.l2.overall_avg_mshr_miss_latency::cpu.data 73255.760316                       # average overall mshr miss latency
system.l2.overall_avg_mshr_miss_latency::total 73242.726932                       # average overall mshr miss latency
system.l2.no_allocate_misses                        0                       # Number of misses that were no-allocate
system.membus.trans_dist::ReadResp             313585                       # Transaction distribution
system.membus.trans_dist::WritebackDirty       369280                       # Transaction distribution
system.membus.trans_dist::CleanEvict           228874                       # Transaction distribution
system.membus.trans_dist::ReadExReq            302008                       # Transaction distribution
system.membus.trans_dist::ReadExResp           302008                       # Transaction distribution
system.membus.trans_dist::ReadSharedReq        313585                       # Transaction distribution
system.membus.pkt_count_system.l2.mem_side::system.mem_ctrls.port      1829340                       # Packet count per connected master and slave (bytes)
system.membus.pkt_count_system.l2.mem_side::total      1829340                       # Packet count per connected master and slave (bytes)
system.membus.pkt_count::total                1829340                       # Packet count per connected master and slave (bytes)
system.membus.pkt_size_system.l2.mem_side::system.mem_ctrls.port     63031872                       # Cumulative packet size per connected master and slave (bytes)
system.membus.pkt_size_system.l2.mem_side::total     63031872                       # Cumulative packet size per connected master and slave (bytes)
system.membus.pkt_size::total                63031872                       # Cumulative packet size per connected master and slave (bytes)
system.membus.snoops                                0                       # Total snoops (count)
system.membus.snoop_fanout::samples           1213747                       # Request fanout histogram
system.membus.snoop_fanout::mean                    0                       # Request fanout histogram
system.membus.snoop_fanout::stdev                   0                       # Request fanout histogram
system.membus.snoop_fanout::underflows              0      0.00%      0.00% # Request fanout histogram
system.membus.snoop_fanout::0                 1213747    100.00%    100.00% # Request fanout histogram
system.membus.snoop_fanout::1                       0      0.00%    100.00% # Request fanout histogram
system.membus.snoop_fanout::overflows               0      0.00%    100.00% # Request fanout histogram
system.membus.snoop_fanout::min_value               0                       # Request fanout histogram
system.membus.snoop_fanout::max_value               0                       # Request fanout histogram
system.membus.snoop_fanout::total             1213747                       # Request fanout histogram
system.membus.reqLayer2.occupancy          2698840500                       # Layer occupancy (ticks)
system.membus.reqLayer2.utilization               0.3                       # Layer utilization (%)
system.membus.respLayer1.occupancy         3329235750                       # Layer occupancy (ticks)
system.membus.respLayer1.utilization              0.3                       # Layer utilization (%)
system.tol2bus.snoop_filter.tot_requests      4088156                       # Total number of requests made to the snoop filter.
system.tol2bus.snoop_filter.hit_single_requests      2042576                       # Number of requests hitting in the snoop filter with a single holder of the requested data.
system.tol2bus.snoop_filter.hit_multi_requests            1                       # Number of requests hitting in the snoop filter with multiple (>1) holders of the requested data.
system.tol2bus.snoop_filter.tot_snoops            755                       # Total number of snoops made to the snoop filter.
system.tol2bus.snoop_filter.hit_single_snoops          755                       # Number of snoops hitting in the snoop filter with a single holder of the requested data.
system.tol2bus.snoop_filter.hit_multi_snoops            0                       # Number of snoops hitting in the snoop filter with multiple (>1) holders of the requested data.
system.tol2bus.trans_dist::ReadResp           1456577                       # Transaction distribution
system.tol2bus.trans_dist::WritebackDirty      1325726                       # Transaction distribution
system.tol2bus.trans_dist::WritebackClean           45                       # Transaction distribution
system.tol2bus.trans_dist::CleanEvict         1315695                       # Transaction distribution
system.tol2bus.trans_dist::ReadExReq           589003                       # Transaction distribution
system.tol2bus.trans_dist::ReadExResp          589003                       # Transaction distribution
system.tol2bus.trans_dist::ReadCleanReq          1001                       # Transaction distribution
system.tol2bus.trans_dist::ReadSharedReq      1455576                       # Transaction distribution
system.tol2bus.pkt_count_system.cpu.icache.mem_side::system.l2.cpu_side         2047                       # Packet count per connected master and slave (bytes)
system.tol2bus.pkt_count_system.cpu.dcache.mem_side::system.l2.cpu_side      6131688                       # Packet count per connected master and slave (bytes)
system.tol2bus.pkt_count::total               6133735                       # Packet count per connected master and slave (bytes)
system.tol2bus.pkt_size_system.cpu.icache.mem_side::system.l2.cpu_side        66944                       # Cumulative packet size per connected master and slave (bytes)
system.tol2bus.pkt_size_system.cpu.dcache.mem_side::system.l2.cpu_side    192065600                       # Cumulative packet size per connected master and slave (bytes)
system.tol2bus.pkt_size::total              192132544                       # Cumulative packet size per connected master and slave (bytes)
system.tol2bus.snoops                          598891                       # Total snoops (count)
system.tol2bus.snoop_fanout::samples          2644471                       # Request fanout histogram
system.tol2bus.snoop_fanout::mean            0.000286                       # Request fanout histogram
system.tol2bus.snoop_fanout::stdev           0.016906                       # Request fanout histogram
system.tol2bus.snoop_fanout::underflows             0      0.00%      0.00% # Request fanout histogram
system.tol2bus.snoop_fanout::0                2643715     99.97%     99.97% # Request fanout histogram
system.tol2bus.snoop_fanout::1                    756      0.03%    100.00% # Request fanout histogram
system.tol2bus.snoop_fanout::2                      0      0.00%    100.00% # Request fanout histogram
system.tol2bus.snoop_fanout::3                      0      0.00%    100.00% # Request fanout histogram
system.tol2bus.snoop_fanout::4                      0      0.00%    100.00% # Request fanout histogram
system.tol2bus.snoop_fanout::overflows              0      0.00%    100.00% # Request fanout histogram
system.tol2bus.snoop_fanout::min_value              0                       # Request fanout histogram
system.tol2bus.snoop_fanout::max_value              1                       # Request fanout histogram
system.tol2bus.snoop_fanout::total            2644471                       # Request fanout histogram
system.tol2bus.reqLayer0.occupancy         3000569000                       # Layer occupancy (ticks)
system.tol2bus.reqLayer0.utilization              0.3                       # Layer utilization (%)
system.tol2bus.respLayer0.occupancy           1501500                       # Layer occupancy (ticks)
system.tol2bus.respLayer0.utilization             0.0                       # Layer utilization (%)
system.tol2bus.respLayer1.occupancy        3066868500                       # Layer occupancy (ticks)
system.tol2bus.respLayer1.utilization             0.3                       # Layer utilization (%)

---------- End Simulation Statistics   ----------
