
---------- Begin Simulation Statistics ----------
sim_seconds                                  1.155791                       # Number of seconds simulated
sim_ticks                                1155791482500                       # Number of ticks simulated
final_tick                               1155791482500                       # Number of ticks from beginning of simulation (restored from checkpoints and never reset)
sim_freq                                 1000000000000                       # Frequency of simulated ticks
host_inst_rate                                  37291                       # Simulator instruction rate (inst/s)
host_op_rate                                    54478                       # Simulator op (including micro ops) rate (op/s)
host_tick_rate                               86200919                       # Simulator tick rate (ticks/s)
host_mem_usage                                 826236                       # Number of bytes of host memory used
host_seconds                                 13408.11                       # Real time elapsed on the host
sim_insts                                   500000001                       # Number of instructions simulated
sim_ops                                     730450447                       # Number of ops (including micro ops) simulated
system.voltage_domain.voltage                       1                       # Voltage in Volts
system.clk_domain.clock                          1000                       # Clock period in ticks
system.mem_ctrls.bytes_read::cpu.inst           63616                       # Number of bytes read from this memory
system.mem_ctrls.bytes_read::cpu.data       128733504                       # Number of bytes read from this memory
system.mem_ctrls.bytes_read::total          128797120                       # Number of bytes read from this memory
system.mem_ctrls.bytes_inst_read::cpu.inst        63616                       # Number of instructions bytes read from this memory
system.mem_ctrls.bytes_inst_read::total         63616                       # Number of instructions bytes read from this memory
system.mem_ctrls.bytes_written::writebacks     53670528                       # Number of bytes written to this memory
system.mem_ctrls.bytes_written::total        53670528                       # Number of bytes written to this memory
system.mem_ctrls.num_reads::cpu.inst              994                       # Number of read requests responded to by this memory
system.mem_ctrls.num_reads::cpu.data          2011461                       # Number of read requests responded to by this memory
system.mem_ctrls.num_reads::total             2012455                       # Number of read requests responded to by this memory
system.mem_ctrls.num_writes::writebacks        838602                       # Number of write requests responded to by this memory
system.mem_ctrls.num_writes::total             838602                       # Number of write requests responded to by this memory
system.mem_ctrls.bw_read::cpu.inst              55041                       # Total read bandwidth from this memory (bytes/s)
system.mem_ctrls.bw_read::cpu.data          111381253                       # Total read bandwidth from this memory (bytes/s)
system.mem_ctrls.bw_read::total             111436294                       # Total read bandwidth from this memory (bytes/s)
system.mem_ctrls.bw_inst_read::cpu.inst         55041                       # Instruction read bandwidth from this memory (bytes/s)
system.mem_ctrls.bw_inst_read::total            55041                       # Instruction read bandwidth from this memory (bytes/s)
system.mem_ctrls.bw_write::writebacks        46436168                       # Write bandwidth from this memory (bytes/s)
system.mem_ctrls.bw_write::total             46436168                       # Write bandwidth from this memory (bytes/s)
system.mem_ctrls.bw_total::writebacks        46436168                       # Total bandwidth to/from this memory (bytes/s)
system.mem_ctrls.bw_total::cpu.inst             55041                       # Total bandwidth to/from this memory (bytes/s)
system.mem_ctrls.bw_total::cpu.data         111381253                       # Total bandwidth to/from this memory (bytes/s)
system.mem_ctrls.bw_total::total            157872463                       # Total bandwidth to/from this memory (bytes/s)
system.mem_ctrls.readReqs                     2012455                       # Number of read requests accepted
system.mem_ctrls.writeReqs                     838602                       # Number of write requests accepted
system.mem_ctrls.readBursts                   2012455                       # Number of DRAM read bursts, including those serviced by the write queue
system.mem_ctrls.writeBursts                   838602                       # Number of DRAM write bursts, including those merged in the write queue
system.mem_ctrls.bytesReadDRAM              127420480                       # Total number of bytes read from DRAM
system.mem_ctrls.bytesReadWrQ                 1376640                       # Total number of bytes read from write queue
system.mem_ctrls.bytesWritten                53525120                       # Total number of bytes written to DRAM
system.mem_ctrls.bytesReadSys               128797120                       # Total read bytes from the system interface side
system.mem_ctrls.bytesWrittenSys             53670528                       # Total written bytes from the system interface side
system.mem_ctrls.servicedByWrQ                  21510                       # Number of DRAM read bursts serviced by the write queue
system.mem_ctrls.mergedWrBursts                  2245                       # Number of DRAM write bursts merged with an existing one
system.mem_ctrls.neitherReadNorWriteReqs      1170842                       # Number of requests that are neither read nor write
system.mem_ctrls.perBankRdBursts::0            125476                       # Per bank write bursts
system.mem_ctrls.perBankRdBursts::1            124776                       # Per bank write bursts
system.mem_ctrls.perBankRdBursts::2            129100                       # Per bank write bursts
system.mem_ctrls.perBankRdBursts::3            121192                       # Per bank write bursts
system.mem_ctrls.perBankRdBursts::4            120305                       # Per bank write bursts
system.mem_ctrls.perBankRdBursts::5            119993                       # Per bank write bursts
system.mem_ctrls.perBankRdBursts::6            132336                       # Per bank write bursts
system.mem_ctrls.perBankRdBursts::7            129342                       # Per bank write bursts
system.mem_ctrls.perBankRdBursts::8            107626                       # Per bank write bursts
system.mem_ctrls.perBankRdBursts::9            107554                       # Per bank write bursts
system.mem_ctrls.perBankRdBursts::10           121176                       # Per bank write bursts
system.mem_ctrls.perBankRdBursts::11           124695                       # Per bank write bursts
system.mem_ctrls.perBankRdBursts::12           124759                       # Per bank write bursts
system.mem_ctrls.perBankRdBursts::13           124690                       # Per bank write bursts
system.mem_ctrls.perBankRdBursts::14           135393                       # Per bank write bursts
system.mem_ctrls.perBankRdBursts::15           142532                       # Per bank write bursts
system.mem_ctrls.perBankWrBursts::0             51991                       # Per bank write bursts
system.mem_ctrls.perBankWrBursts::1             49998                       # Per bank write bursts
system.mem_ctrls.perBankWrBursts::2             56123                       # Per bank write bursts
system.mem_ctrls.perBankWrBursts::3             51216                       # Per bank write bursts
system.mem_ctrls.perBankWrBursts::4             45437                       # Per bank write bursts
system.mem_ctrls.perBankWrBursts::5             46220                       # Per bank write bursts
system.mem_ctrls.perBankWrBursts::6             54361                       # Per bank write bursts
system.mem_ctrls.perBankWrBursts::7             58550                       # Per bank write bursts
system.mem_ctrls.perBankWrBursts::8             48753                       # Per bank write bursts
system.mem_ctrls.perBankWrBursts::9             47765                       # Per bank write bursts
system.mem_ctrls.perBankWrBursts::10            51232                       # Per bank write bursts
system.mem_ctrls.perBankWrBursts::11            51166                       # Per bank write bursts
system.mem_ctrls.perBankWrBursts::12            47063                       # Per bank write bursts
system.mem_ctrls.perBankWrBursts::13            48757                       # Per bank write bursts
system.mem_ctrls.perBankWrBursts::14            57457                       # Per bank write bursts
system.mem_ctrls.perBankWrBursts::15            70241                       # Per bank write bursts
system.mem_ctrls.numRdRetry                         0                       # Number of times read queue was full causing retry
system.mem_ctrls.numWrRetry                         0                       # Number of times write queue was full causing retry
system.mem_ctrls.totGap                  1155758655500                       # Total gap between requests
system.mem_ctrls.readPktSize::0                     0                       # Read request sizes (log2)
system.mem_ctrls.readPktSize::1                     0                       # Read request sizes (log2)
system.mem_ctrls.readPktSize::2                     0                       # Read request sizes (log2)
system.mem_ctrls.readPktSize::3                     0                       # Read request sizes (log2)
system.mem_ctrls.readPktSize::4                     0                       # Read request sizes (log2)
system.mem_ctrls.readPktSize::5                     0                       # Read request sizes (log2)
system.mem_ctrls.readPktSize::6               2012455                       # Read request sizes (log2)
system.mem_ctrls.writePktSize::0                    0                       # Write request sizes (log2)
system.mem_ctrls.writePktSize::1                    0                       # Write request sizes (log2)
system.mem_ctrls.writePktSize::2                    0                       # Write request sizes (log2)
system.mem_ctrls.writePktSize::3                    0                       # Write request sizes (log2)
system.mem_ctrls.writePktSize::4                    0                       # Write request sizes (log2)
system.mem_ctrls.writePktSize::5                    0                       # Write request sizes (log2)
system.mem_ctrls.writePktSize::6               838602                       # Write request sizes (log2)
system.mem_ctrls.rdQLenPdf::0                 1982082                       # What read queue length does an incoming req see
system.mem_ctrls.rdQLenPdf::1                    7657                       # What read queue length does an incoming req see
system.mem_ctrls.rdQLenPdf::2                     675                       # What read queue length does an incoming req see
system.mem_ctrls.rdQLenPdf::3                     531                       # What read queue length does an incoming req see
system.mem_ctrls.rdQLenPdf::4                       0                       # What read queue length does an incoming req see
system.mem_ctrls.rdQLenPdf::5                       0                       # What read queue length does an incoming req see
system.mem_ctrls.rdQLenPdf::6                       0                       # What read queue length does an incoming req see
system.mem_ctrls.rdQLenPdf::7                       0                       # What read queue length does an incoming req see
system.mem_ctrls.rdQLenPdf::8                       0                       # What read queue length does an incoming req see
system.mem_ctrls.rdQLenPdf::9                       0                       # What read queue length does an incoming req see
system.mem_ctrls.rdQLenPdf::10                      0                       # What read queue length does an incoming req see
system.mem_ctrls.rdQLenPdf::11                      0                       # What read queue length does an incoming req see
system.mem_ctrls.rdQLenPdf::12                      0                       # What read queue length does an incoming req see
system.mem_ctrls.rdQLenPdf::13                      0                       # What read queue length does an incoming req see
system.mem_ctrls.rdQLenPdf::14                      0                       # What read queue length does an incoming req see
system.mem_ctrls.rdQLenPdf::15                      0                       # What read queue length does an incoming req see
system.mem_ctrls.rdQLenPdf::16                      0                       # What read queue length does an incoming req see
system.mem_ctrls.rdQLenPdf::17                      0                       # What read queue length does an incoming req see
system.mem_ctrls.rdQLenPdf::18                      0                       # What read queue length does an incoming req see
system.mem_ctrls.rdQLenPdf::19                      0                       # What read queue length does an incoming req see
system.mem_ctrls.rdQLenPdf::20                      0                       # What read queue length does an incoming req see
system.mem_ctrls.rdQLenPdf::21                      0                       # What read queue length does an incoming req see
system.mem_ctrls.rdQLenPdf::22                      0                       # What read queue length does an incoming req see
system.mem_ctrls.rdQLenPdf::23                      0                       # What read queue length does an incoming req see
system.mem_ctrls.rdQLenPdf::24                      0                       # What read queue length does an incoming req see
system.mem_ctrls.rdQLenPdf::25                      0                       # What read queue length does an incoming req see
system.mem_ctrls.rdQLenPdf::26                      0                       # What read queue length does an incoming req see
system.mem_ctrls.rdQLenPdf::27                      0                       # What read queue length does an incoming req see
system.mem_ctrls.rdQLenPdf::28                      0                       # What read queue length does an incoming req see
system.mem_ctrls.rdQLenPdf::29                      0                       # What read queue length does an incoming req see
system.mem_ctrls.rdQLenPdf::30                      0                       # What read queue length does an incoming req see
system.mem_ctrls.rdQLenPdf::31                      0                       # What read queue length does an incoming req see
system.mem_ctrls.wrQLenPdf::0                       1                       # What write queue length does an incoming req see
system.mem_ctrls.wrQLenPdf::1                       1                       # What write queue length does an incoming req see
system.mem_ctrls.wrQLenPdf::2                       1                       # What write queue length does an incoming req see
system.mem_ctrls.wrQLenPdf::3                       1                       # What write queue length does an incoming req see
system.mem_ctrls.wrQLenPdf::4                       1                       # What write queue length does an incoming req see
system.mem_ctrls.wrQLenPdf::5                       1                       # What write queue length does an incoming req see
system.mem_ctrls.wrQLenPdf::6                       1                       # What write queue length does an incoming req see
system.mem_ctrls.wrQLenPdf::7                       1                       # What write queue length does an incoming req see
system.mem_ctrls.wrQLenPdf::8                       1                       # What write queue length does an incoming req see
system.mem_ctrls.wrQLenPdf::9                       1                       # What write queue length does an incoming req see
system.mem_ctrls.wrQLenPdf::10                      1                       # What write queue length does an incoming req see
system.mem_ctrls.wrQLenPdf::11                      1                       # What write queue length does an incoming req see
system.mem_ctrls.wrQLenPdf::12                      1                       # What write queue length does an incoming req see
system.mem_ctrls.wrQLenPdf::13                      1                       # What write queue length does an incoming req see
system.mem_ctrls.wrQLenPdf::14                      1                       # What write queue length does an incoming req see
system.mem_ctrls.wrQLenPdf::15                  26459                       # What write queue length does an incoming req see
system.mem_ctrls.wrQLenPdf::16                  30135                       # What write queue length does an incoming req see
system.mem_ctrls.wrQLenPdf::17                  48801                       # What write queue length does an incoming req see
system.mem_ctrls.wrQLenPdf::18                  48880                       # What write queue length does an incoming req see
system.mem_ctrls.wrQLenPdf::19                  48743                       # What write queue length does an incoming req see
system.mem_ctrls.wrQLenPdf::20                  48721                       # What write queue length does an incoming req see
system.mem_ctrls.wrQLenPdf::21                  48716                       # What write queue length does an incoming req see
system.mem_ctrls.wrQLenPdf::22                  48718                       # What write queue length does an incoming req see
system.mem_ctrls.wrQLenPdf::23                  48718                       # What write queue length does an incoming req see
system.mem_ctrls.wrQLenPdf::24                  48717                       # What write queue length does an incoming req see
system.mem_ctrls.wrQLenPdf::25                  48716                       # What write queue length does an incoming req see
system.mem_ctrls.wrQLenPdf::26                  48715                       # What write queue length does an incoming req see
system.mem_ctrls.wrQLenPdf::27                  48715                       # What write queue length does an incoming req see
system.mem_ctrls.wrQLenPdf::28                  48712                       # What write queue length does an incoming req see
system.mem_ctrls.wrQLenPdf::29                  48723                       # What write queue length does an incoming req see
system.mem_ctrls.wrQLenPdf::30                  48717                       # What write queue length does an incoming req see
system.mem_ctrls.wrQLenPdf::31                  48712                       # What write queue length does an incoming req see
system.mem_ctrls.wrQLenPdf::32                  48712                       # What write queue length does an incoming req see
system.mem_ctrls.wrQLenPdf::33                     12                       # What write queue length does an incoming req see
system.mem_ctrls.wrQLenPdf::34                      0                       # What write queue length does an incoming req see
system.mem_ctrls.wrQLenPdf::35                      0                       # What write queue length does an incoming req see
system.mem_ctrls.wrQLenPdf::36                      0                       # What write queue length does an incoming req see
system.mem_ctrls.wrQLenPdf::37                      0                       # What write queue length does an incoming req see
system.mem_ctrls.wrQLenPdf::38                      0                       # What write queue length does an incoming req see
system.mem_ctrls.wrQLenPdf::39                      0                       # What write queue length does an incoming req see
system.mem_ctrls.wrQLenPdf::40                      0                       # What write queue length does an incoming req see
system.mem_ctrls.wrQLenPdf::41                      0                       # What write queue length does an incoming req see
system.mem_ctrls.wrQLenPdf::42                      0                       # What write queue length does an incoming req see
system.mem_ctrls.wrQLenPdf::43                      0                       # What write queue length does an incoming req see
system.mem_ctrls.wrQLenPdf::44                      0                       # What write queue length does an incoming req see
system.mem_ctrls.wrQLenPdf::45                      0                       # What write queue length does an incoming req see
system.mem_ctrls.wrQLenPdf::46                      0                       # What write queue length does an incoming req see
system.mem_ctrls.wrQLenPdf::47                      0                       # What write queue length does an incoming req see
system.mem_ctrls.wrQLenPdf::48                      0                       # What write queue length does an incoming req see
system.mem_ctrls.wrQLenPdf::49                      0                       # What write queue length does an incoming req see
system.mem_ctrls.wrQLenPdf::50                      0                       # What write queue length does an incoming req see
system.mem_ctrls.wrQLenPdf::51                      0                       # What write queue length does an incoming req see
system.mem_ctrls.wrQLenPdf::52                      0                       # What write queue length does an incoming req see
system.mem_ctrls.wrQLenPdf::53                      0                       # What write queue length does an incoming req see
system.mem_ctrls.wrQLenPdf::54                      0                       # What write queue length does an incoming req see
system.mem_ctrls.wrQLenPdf::55                      0                       # What write queue length does an incoming req see
system.mem_ctrls.wrQLenPdf::56                      0                       # What write queue length does an incoming req see
system.mem_ctrls.wrQLenPdf::57                      0                       # What write queue length does an incoming req see
system.mem_ctrls.wrQLenPdf::58                      0                       # What write queue length does an incoming req see
system.mem_ctrls.wrQLenPdf::59                      0                       # What write queue length does an incoming req see
system.mem_ctrls.wrQLenPdf::60                      0                       # What write queue length does an incoming req see
system.mem_ctrls.wrQLenPdf::61                      0                       # What write queue length does an incoming req see
system.mem_ctrls.wrQLenPdf::62                      0                       # What write queue length does an incoming req see
system.mem_ctrls.wrQLenPdf::63                      0                       # What write queue length does an incoming req see
system.mem_ctrls.bytesPerActivate::samples      1671287                       # Bytes accessed per row activation
system.mem_ctrls.bytesPerActivate::mean    108.267222                       # Bytes accessed per row activation
system.mem_ctrls.bytesPerActivate::gmean    86.103125                       # Bytes accessed per row activation
system.mem_ctrls.bytesPerActivate::stdev   119.291533                       # Bytes accessed per row activation
system.mem_ctrls.bytesPerActivate::0-127      1200084     71.81%     71.81% # Bytes accessed per row activation
system.mem_ctrls.bytesPerActivate::128-255       357156     21.37%     93.18% # Bytes accessed per row activation
system.mem_ctrls.bytesPerActivate::256-383        48917      2.93%     96.10% # Bytes accessed per row activation
system.mem_ctrls.bytesPerActivate::384-511        16470      0.99%     97.09% # Bytes accessed per row activation
system.mem_ctrls.bytesPerActivate::512-639        30107      1.80%     98.89% # Bytes accessed per row activation
system.mem_ctrls.bytesPerActivate::640-767         3314      0.20%     99.09% # Bytes accessed per row activation
system.mem_ctrls.bytesPerActivate::768-895         2334      0.14%     99.23% # Bytes accessed per row activation
system.mem_ctrls.bytesPerActivate::896-1023         1639      0.10%     99.33% # Bytes accessed per row activation
system.mem_ctrls.bytesPerActivate::1024-1151        11266      0.67%    100.00% # Bytes accessed per row activation
system.mem_ctrls.bytesPerActivate::total      1671287                       # Bytes accessed per row activation
system.mem_ctrls.rdPerTurnAround::samples        48712                       # Reads before turning the bus around for writes
system.mem_ctrls.rdPerTurnAround::mean      40.825135                       # Reads before turning the bus around for writes
system.mem_ctrls.rdPerTurnAround::gmean     25.250102                       # Reads before turning the bus around for writes
system.mem_ctrls.rdPerTurnAround::stdev    187.204359                       # Reads before turning the bus around for writes
system.mem_ctrls.rdPerTurnAround::0-1023        48618     99.81%     99.81% # Reads before turning the bus around for writes
system.mem_ctrls.rdPerTurnAround::1024-2047           71      0.15%     99.95% # Reads before turning the bus around for writes
system.mem_ctrls.rdPerTurnAround::2048-3071           19      0.04%     99.99% # Reads before turning the bus around for writes
system.mem_ctrls.rdPerTurnAround::3072-4095            2      0.00%    100.00% # Reads before turning the bus around for writes
system.mem_ctrls.rdPerTurnAround::14336-15359            1      0.00%    100.00% # Reads before turning the bus around for writes
system.mem_ctrls.rdPerTurnAround::30720-31743            1      0.00%    100.00% # Reads before turning the bus around for writes
system.mem_ctrls.rdPerTurnAround::total         48712                       # Reads before turning the bus around for writes
system.mem_ctrls.wrPerTurnAround::samples        48712                       # Writes before turning the bus around for reads
system.mem_ctrls.wrPerTurnAround::mean      17.168870                       # Writes before turning the bus around for reads
system.mem_ctrls.wrPerTurnAround::gmean     17.141783                       # Writes before turning the bus around for reads
system.mem_ctrls.wrPerTurnAround::stdev      0.958703                       # Writes before turning the bus around for reads
system.mem_ctrls.wrPerTurnAround::16            18598     38.18%     38.18% # Writes before turning the bus around for reads
system.mem_ctrls.wrPerTurnAround::17             3654      7.50%     45.68% # Writes before turning the bus around for reads
system.mem_ctrls.wrPerTurnAround::18            26100     53.58%     99.26% # Writes before turning the bus around for reads
system.mem_ctrls.wrPerTurnAround::19              357      0.73%     99.99% # Writes before turning the bus around for reads
system.mem_ctrls.wrPerTurnAround::20                2      0.00%    100.00% # Writes before turning the bus around for reads
system.mem_ctrls.wrPerTurnAround::21                1      0.00%    100.00% # Writes before turning the bus around for reads
system.mem_ctrls.wrPerTurnAround::total         48712                       # Writes before turning the bus around for reads
system.mem_ctrls.totQLat                  32630326250                       # Total ticks spent queuing
system.mem_ctrls.totMemAccLat             69960545000                       # Total ticks spent from burst creation until serviced by the DRAM
system.mem_ctrls.totBusLat                 9954725000                       # Total ticks spent in databus transfers
system.mem_ctrls.avgQLat                     16389.37                       # Average queueing delay per DRAM burst
system.mem_ctrls.avgBusLat                    5000.00                       # Average bus latency per DRAM burst
system.mem_ctrls.avgMemAccLat                35139.37                       # Average memory access latency per DRAM burst
system.mem_ctrls.avgRdBW                       110.25                       # Average DRAM read bandwidth in MiByte/s
system.mem_ctrls.avgWrBW                        46.31                       # Average achieved write bandwidth in MiByte/s
system.mem_ctrls.avgRdBWSys                    111.44                       # Average system read bandwidth in MiByte/s
system.mem_ctrls.avgWrBWSys                     46.44                       # Average system write bandwidth in MiByte/s
system.mem_ctrls.peakBW                      12800.00                       # Theoretical peak bandwidth in MiByte/s
system.mem_ctrls.busUtil                         1.22                       # Data bus utilization in percentage
system.mem_ctrls.busUtilRead                     0.86                       # Data bus utilization in percentage for reads
system.mem_ctrls.busUtilWrite                    0.36                       # Data bus utilization in percentage for writes
system.mem_ctrls.avgRdQLen                       1.00                       # Average read queue length when enqueuing
system.mem_ctrls.avgWrQLen                      25.48                       # Average write queue length when enqueuing
system.mem_ctrls.readRowHits                   832556                       # Number of row buffer hits during reads
system.mem_ctrls.writeRowHits                  323432                       # Number of row buffer hits during writes
system.mem_ctrls.readRowHitRate                 41.82                       # Row buffer hit rate for reads
system.mem_ctrls.writeRowHitRate                38.67                       # Row buffer hit rate for writes
system.mem_ctrls.avgGap                     405379.01                       # Average gap between requests
system.mem_ctrls.pageHitRate                    40.89                       # Row buffer hit rate, read and write combined
system.mem_ctrls_0.actEnergy               6331242960                       # Energy for activate commands per rank (pJ)
system.mem_ctrls_0.preEnergy               3454547250                       # Energy for precharge commands per rank (pJ)
system.mem_ctrls_0.readEnergy              7819656000                       # Energy for read commands per rank (pJ)
system.mem_ctrls_0.writeEnergy             2682046080                       # Energy for write commands per rank (pJ)
system.mem_ctrls_0.refreshEnergy          75490646400                       # Energy for refresh commands per rank (pJ)
system.mem_ctrls_0.actBackEnergy         386026516710                       # Energy for active background per rank (pJ)
system.mem_ctrls_0.preBackEnergy         354854966250                       # Energy for precharge background per rank (pJ)
system.mem_ctrls_0.totalEnergy           836659621650                       # Total energy per rank (pJ)
system.mem_ctrls_0.averagePower            723.884750                       # Core power per rank (mW)
system.mem_ctrls_0.memoryStateTime::IDLE 588054340250                       # Time in different power states
system.mem_ctrls_0.memoryStateTime::REF   38594400000                       # Time in different power states
system.mem_ctrls_0.memoryStateTime::PRE_PDN            0                       # Time in different power states
system.mem_ctrls_0.memoryStateTime::ACT  529142469750                       # Time in different power states
system.mem_ctrls_0.memoryStateTime::ACT_PDN            0                       # Time in different power states
system.mem_ctrls_1.actEnergy               6303686760                       # Energy for activate commands per rank (pJ)
system.mem_ctrls_1.preEnergy               3439511625                       # Energy for precharge commands per rank (pJ)
system.mem_ctrls_1.readEnergy              7709715000                       # Energy for read commands per rank (pJ)
system.mem_ctrls_1.writeEnergy             2737372320                       # Energy for write commands per rank (pJ)
system.mem_ctrls_1.refreshEnergy          75490646400                       # Energy for refresh commands per rank (pJ)
system.mem_ctrls_1.actBackEnergy         387599685075                       # Energy for active background per rank (pJ)
system.mem_ctrls_1.preBackEnergy         353474994000                       # Energy for precharge background per rank (pJ)
system.mem_ctrls_1.totalEnergy           836755611180                       # Total energy per rank (pJ)
system.mem_ctrls_1.averagePower            723.967801                       # Core power per rank (mW)
system.mem_ctrls_1.memoryStateTime::IDLE 585734265500                       # Time in different power states
system.mem_ctrls_1.memoryStateTime::REF   38594400000                       # Time in different power states
system.mem_ctrls_1.memoryStateTime::PRE_PDN            0                       # Time in different power states
system.mem_ctrls_1.memoryStateTime::ACT  531462544500                       # Time in different power states
system.mem_ctrls_1.memoryStateTime::ACT_PDN            0                       # Time in different power states
system.cpu_voltage_domain.voltage                   1                       # Voltage in Volts
system.cpu_clk_domain.clock                       500                       # Clock period in ticks
system.cpu.apic_clk_domain.clock                 8000                       # Clock period in ticks
system.cpu.workload.num_syscalls                   86                       # Number of system calls
system.cpu.numCycles                       2311582965                       # number of cpu cycles simulated
system.cpu.numWorkItemsStarted                      0                       # number of work items this cpu started
system.cpu.numWorkItemsCompleted                    0                       # number of work items this cpu completed
system.cpu.committedInsts                   500000001                       # Number of instructions committed
system.cpu.committedOps                     730450447                       # Number of ops (including micro ops) committed
system.cpu.num_int_alu_accesses             729688907                       # Number of integer alu accesses
system.cpu.num_fp_alu_accesses                    663                       # Number of float alu accesses
system.cpu.num_func_calls                     1453961                       # number of times a function call or return occured
system.cpu.num_conditional_control_insts     31770496                       # number of instructions that are conditional controls
system.cpu.num_int_insts                    729688907                       # number of integer instructions
system.cpu.num_fp_insts                           663                       # number of float instructions
system.cpu.num_int_register_reads          1698743410                       # number of times the integer registers were read
system.cpu.num_int_register_writes          621892952                       # number of times the integer registers were written
system.cpu.num_fp_register_reads                 1009                       # number of times the floating registers were read
system.cpu.num_fp_register_writes                 429                       # number of times the floating registers were written
system.cpu.num_cc_register_reads            180840558                       # number of times the CC registers were read
system.cpu.num_cc_register_writes           276245127                       # number of times the CC registers were written
system.cpu.num_mem_refs                     295985459                       # number of memory refs
system.cpu.num_load_insts                   225946750                       # Number of load instructions
system.cpu.num_store_insts                   70038709                       # Number of store instructions
system.cpu.num_idle_cycles                          0                       # Number of idle cycles
system.cpu.num_busy_cycles                 2311582965                       # Number of busy cycles
system.cpu.not_idle_fraction                        1                       # Percentage of non-idle cycles
system.cpu.idle_fraction                            0                       # Percentage of idle cycles
system.cpu.Branches                          37843296                       # Number of branches fetched
system.cpu.op_class::No_OpClass                 94739      0.01%      0.01% # Class of executed instruction
system.cpu.op_class::IntAlu                 434349070     59.46%     59.48% # Class of executed instruction
system.cpu.op_class::IntMult                    20662      0.00%     59.48% # Class of executed instruction
system.cpu.op_class::IntDiv                       119      0.00%     59.48% # Class of executed instruction
system.cpu.op_class::FloatAdd                     398      0.00%     59.48% # Class of executed instruction
system.cpu.op_class::FloatCmp                       0      0.00%     59.48% # Class of executed instruction
system.cpu.op_class::FloatCvt                       0      0.00%     59.48% # Class of executed instruction
system.cpu.op_class::FloatMult                      0      0.00%     59.48% # Class of executed instruction
system.cpu.op_class::FloatDiv                       0      0.00%     59.48% # Class of executed instruction
system.cpu.op_class::FloatSqrt                      0      0.00%     59.48% # Class of executed instruction
system.cpu.op_class::SimdAdd                        0      0.00%     59.48% # Class of executed instruction
system.cpu.op_class::SimdAddAcc                     0      0.00%     59.48% # Class of executed instruction
system.cpu.op_class::SimdAlu                        0      0.00%     59.48% # Class of executed instruction
system.cpu.op_class::SimdCmp                        0      0.00%     59.48% # Class of executed instruction
system.cpu.op_class::SimdCvt                        0      0.00%     59.48% # Class of executed instruction
system.cpu.op_class::SimdMisc                       0      0.00%     59.48% # Class of executed instruction
system.cpu.op_class::SimdMult                       0      0.00%     59.48% # Class of executed instruction
system.cpu.op_class::SimdMultAcc                    0      0.00%     59.48% # Class of executed instruction
system.cpu.op_class::SimdShift                      0      0.00%     59.48% # Class of executed instruction
system.cpu.op_class::SimdShiftAcc                   0      0.00%     59.48% # Class of executed instruction
system.cpu.op_class::SimdSqrt                       0      0.00%     59.48% # Class of executed instruction
system.cpu.op_class::SimdFloatAdd                   0      0.00%     59.48% # Class of executed instruction
system.cpu.op_class::SimdFloatAlu                   0      0.00%     59.48% # Class of executed instruction
system.cpu.op_class::SimdFloatCmp                   0      0.00%     59.48% # Class of executed instruction
system.cpu.op_class::SimdFloatCvt                   0      0.00%     59.48% # Class of executed instruction
system.cpu.op_class::SimdFloatDiv                   0      0.00%     59.48% # Class of executed instruction
system.cpu.op_class::SimdFloatMisc                  0      0.00%     59.48% # Class of executed instruction
system.cpu.op_class::SimdFloatMult                  0      0.00%     59.48% # Class of executed instruction
system.cpu.op_class::SimdFloatMultAcc               0      0.00%     59.48% # Class of executed instruction
system.cpu.op_class::SimdFloatSqrt                  0      0.00%     59.48% # Class of executed instruction
system.cpu.op_class::MemRead                225946750     30.93%     90.41% # Class of executed instruction
system.cpu.op_class::MemWrite                70038709      9.59%    100.00% # Class of executed instruction
system.cpu.op_class::IprAccess                      0      0.00%    100.00% # Class of executed instruction
system.cpu.op_class::InstPrefetch                   0      0.00%    100.00% # Class of executed instruction
system.cpu.op_class::total                  730450447                       # Class of executed instruction
system.cpu.dcache.tags.replacements           2042575                       # number of replacements
system.cpu.dcache.tags.tagsinuse          2042.667735                       # Cycle average of tags in use
system.cpu.dcache.tags.total_refs           293940844                       # Total number of references to valid blocks.
system.cpu.dcache.tags.sampled_refs           2044623                       # Sample count of references to valid blocks.
system.cpu.dcache.tags.avg_refs            143.762857                       # Average number of references to valid blocks.
system.cpu.dcache.tags.warmup_cycle        3529093500                       # Cycle when the warmup percentage was hit.
system.cpu.dcache.tags.occ_blocks::cpu.data  2042.667735                       # Average occupied blocks per requestor
system.cpu.dcache.tags.occ_percent::cpu.data     0.997396                       # Average percentage of cache occupancy
system.cpu.dcache.tags.occ_percent::total     0.997396                       # Average percentage of cache occupancy
system.cpu.dcache.tags.occ_task_id_blocks::1024         2048                       # Occupied blocks per task id
system.cpu.dcache.tags.age_task_id_blocks_1024::1            2                       # Occupied blocks per task id
system.cpu.dcache.tags.age_task_id_blocks_1024::2           16                       # Occupied blocks per task id
system.cpu.dcache.tags.age_task_id_blocks_1024::3         1420                       # Occupied blocks per task id
system.cpu.dcache.tags.age_task_id_blocks_1024::4          610                       # Occupied blocks per task id
system.cpu.dcache.tags.occ_task_id_percent::1024            1                       # Percentage of cache occupancy per task id
system.cpu.dcache.tags.tag_accesses         594015557                       # Number of tag accesses
system.cpu.dcache.tags.data_accesses        594015557                       # Number of data accesses
system.cpu.dcache.ReadReq_hits::cpu.data    224491119                       # number of ReadReq hits
system.cpu.dcache.ReadReq_hits::total       224491119                       # number of ReadReq hits
system.cpu.dcache.WriteReq_hits::cpu.data     69449725                       # number of WriteReq hits
system.cpu.dcache.WriteReq_hits::total       69449725                       # number of WriteReq hits
system.cpu.dcache.demand_hits::cpu.data     293940844                       # number of demand (read+write) hits
system.cpu.dcache.demand_hits::total        293940844                       # number of demand (read+write) hits
system.cpu.dcache.overall_hits::cpu.data    293940844                       # number of overall hits
system.cpu.dcache.overall_hits::total       293940844                       # number of overall hits
system.cpu.dcache.ReadReq_misses::cpu.data      1439254                       # number of ReadReq misses
system.cpu.dcache.ReadReq_misses::total       1439254                       # number of ReadReq misses
system.cpu.dcache.WriteReq_misses::cpu.data       588985                       # number of WriteReq misses
system.cpu.dcache.WriteReq_misses::total       588985                       # number of WriteReq misses
system.cpu.dcache.SoftPFReq_misses::cpu.data        16384                       # number of SoftPFReq misses
system.cpu.dcache.SoftPFReq_misses::total        16384                       # number of SoftPFReq misses
system.cpu.dcache.demand_misses::cpu.data      2028239                       # number of demand (read+write) misses
system.cpu.dcache.demand_misses::total        2028239                       # number of demand (read+write) misses
system.cpu.dcache.overall_misses::cpu.data      2044623                       # number of overall misses
system.cpu.dcache.overall_misses::total       2044623                       # number of overall misses
system.cpu.dcache.ReadReq_miss_latency::cpu.data 121325504500                       # number of ReadReq miss cycles
system.cpu.dcache.ReadReq_miss_latency::total 121325504500                       # number of ReadReq miss cycles
system.cpu.dcache.WriteReq_miss_latency::cpu.data  52882194500                       # number of WriteReq miss cycles
system.cpu.dcache.WriteReq_miss_latency::total  52882194500                       # number of WriteReq miss cycles
system.cpu.dcache.demand_miss_latency::cpu.data 174207699000                       # number of demand (read+write) miss cycles
system.cpu.dcache.demand_miss_latency::total 174207699000                       # number of demand (read+write) miss cycles
system.cpu.dcache.overall_miss_latency::cpu.data 174207699000                       # number of overall miss cycles
system.cpu.dcache.overall_miss_latency::total 174207699000                       # number of overall miss cycles
system.cpu.dcache.ReadReq_accesses::cpu.data    225930373                       # number of ReadReq accesses(hits+misses)
system.cpu.dcache.ReadReq_accesses::total    225930373                       # number of ReadReq accesses(hits+misses)
system.cpu.dcache.WriteReq_accesses::cpu.data     70038710                       # number of WriteReq accesses(hits+misses)
system.cpu.dcache.WriteReq_accesses::total     70038710                       # number of WriteReq accesses(hits+misses)
system.cpu.dcache.SoftPFReq_accesses::cpu.data        16384                       # number of SoftPFReq accesses(hits+misses)
system.cpu.dcache.SoftPFReq_accesses::total        16384                       # number of SoftPFReq accesses(hits+misses)
system.cpu.dcache.demand_accesses::cpu.data    295969083                       # number of demand (read+write) accesses
system.cpu.dcache.demand_accesses::total    295969083                       # number of demand (read+write) accesses
system.cpu.dcache.overall_accesses::cpu.data    295985467                       # number of overall (read+write) accesses
system.cpu.dcache.overall_accesses::total    295985467                       # number of overall (read+write) accesses
system.cpu.dcache.ReadReq_miss_rate::cpu.data     0.006370                       # miss rate for ReadReq accesses
system.cpu.dcache.ReadReq_miss_rate::total     0.006370                       # miss rate for ReadReq accesses
system.cpu.dcache.WriteReq_miss_rate::cpu.data     0.008409                       # miss rate for WriteReq accesses
system.cpu.dcache.WriteReq_miss_rate::total     0.008409                       # miss rate for WriteReq accesses
system.cpu.dcache.SoftPFReq_miss_rate::cpu.data            1                       # miss rate for SoftPFReq accesses
system.cpu.dcache.SoftPFReq_miss_rate::total            1                       # miss rate for SoftPFReq accesses
system.cpu.dcache.demand_miss_rate::cpu.data     0.006853                       # miss rate for demand accesses
system.cpu.dcache.demand_miss_rate::total     0.006853                       # miss rate for demand accesses
system.cpu.dcache.overall_miss_rate::cpu.data     0.006908                       # miss rate for overall accesses
system.cpu.dcache.overall_miss_rate::total     0.006908                       # miss rate for overall accesses
system.cpu.dcache.ReadReq_avg_miss_latency::cpu.data 84297.493354                       # average ReadReq miss latency
system.cpu.dcache.ReadReq_avg_miss_latency::total 84297.493354                       # average ReadReq miss latency
system.cpu.dcache.WriteReq_avg_miss_latency::cpu.data 89785.299286                       # average WriteReq miss latency
system.cpu.dcache.WriteReq_avg_miss_latency::total 89785.299286                       # average WriteReq miss latency
system.cpu.dcache.demand_avg_miss_latency::cpu.data 85891.109973                       # average overall miss latency
system.cpu.dcache.demand_avg_miss_latency::total 85891.109973                       # average overall miss latency
system.cpu.dcache.overall_avg_miss_latency::cpu.data 85202.846197                       # average overall miss latency
system.cpu.dcache.overall_avg_miss_latency::total 85202.846197                       # average overall miss latency
system.cpu.dcache.blocked_cycles::no_mshrs       318202                       # number of cycles access was blocked
system.cpu.dcache.blocked_cycles::no_targets            0                       # number of cycles access was blocked
system.cpu.dcache.blocked::no_mshrs              4815                       # number of cycles access was blocked
system.cpu.dcache.blocked::no_targets               0                       # number of cycles access was blocked
system.cpu.dcache.avg_blocked_cycles::no_mshrs    66.085566                       # average number of cycles each access was blocked
system.cpu.dcache.avg_blocked_cycles::no_targets          nan                       # average number of cycles each access was blocked
system.cpu.dcache.fast_writes                       0                       # number of fast writes performed
system.cpu.dcache.cache_copies                      0                       # number of cache copies performed
system.cpu.dcache.writebacks::writebacks       871777                       # number of writebacks
system.cpu.dcache.writebacks::total            871777                       # number of writebacks
system.cpu.dcache.ReadReq_mshr_misses::cpu.data      1439254                       # number of ReadReq MSHR misses
system.cpu.dcache.ReadReq_mshr_misses::total      1439254                       # number of ReadReq MSHR misses
system.cpu.dcache.WriteReq_mshr_misses::cpu.data       588985                       # number of WriteReq MSHR misses
system.cpu.dcache.WriteReq_mshr_misses::total       588985                       # number of WriteReq MSHR misses
system.cpu.dcache.SoftPFReq_mshr_misses::cpu.data        16384                       # number of SoftPFReq MSHR misses
system.cpu.dcache.SoftPFReq_mshr_misses::total        16384                       # number of SoftPFReq MSHR misses
system.cpu.dcache.demand_mshr_misses::cpu.data      2028239                       # number of demand (read+write) MSHR misses
system.cpu.dcache.demand_mshr_misses::total      2028239                       # number of demand (read+write) MSHR misses
system.cpu.dcache.overall_mshr_misses::cpu.data      2044623                       # number of overall MSHR misses
system.cpu.dcache.overall_mshr_misses::total      2044623                       # number of overall MSHR misses
system.cpu.dcache.ReadReq_mshr_miss_latency::cpu.data 119886250500                       # number of ReadReq MSHR miss cycles
system.cpu.dcache.ReadReq_mshr_miss_latency::total 119886250500                       # number of ReadReq MSHR miss cycles
system.cpu.dcache.WriteReq_mshr_miss_latency::cpu.data  52293209500                       # number of WriteReq MSHR miss cycles
system.cpu.dcache.WriteReq_mshr_miss_latency::total  52293209500                       # number of WriteReq MSHR miss cycles
system.cpu.dcache.SoftPFReq_mshr_miss_latency::cpu.data   1427434481                       # number of SoftPFReq MSHR miss cycles
system.cpu.dcache.SoftPFReq_mshr_miss_latency::total   1427434481                       # number of SoftPFReq MSHR miss cycles
system.cpu.dcache.demand_mshr_miss_latency::cpu.data 172179460000                       # number of demand (read+write) MSHR miss cycles
system.cpu.dcache.demand_mshr_miss_latency::total 172179460000                       # number of demand (read+write) MSHR miss cycles
system.cpu.dcache.overall_mshr_miss_latency::cpu.data 173606894481                       # number of overall MSHR miss cycles
system.cpu.dcache.overall_mshr_miss_latency::total 173606894481                       # number of overall MSHR miss cycles
system.cpu.dcache.ReadReq_mshr_miss_rate::cpu.data     0.006370                       # mshr miss rate for ReadReq accesses
system.cpu.dcache.ReadReq_mshr_miss_rate::total     0.006370                       # mshr miss rate for ReadReq accesses
system.cpu.dcache.WriteReq_mshr_miss_rate::cpu.data     0.008409                       # mshr miss rate for WriteReq accesses
system.cpu.dcache.WriteReq_mshr_miss_rate::total     0.008409                       # mshr miss rate for WriteReq accesses
system.cpu.dcache.SoftPFReq_mshr_miss_rate::cpu.data            1                       # mshr miss rate for SoftPFReq accesses
system.cpu.dcache.SoftPFReq_mshr_miss_rate::total            1                       # mshr miss rate for SoftPFReq accesses
system.cpu.dcache.demand_mshr_miss_rate::cpu.data     0.006853                       # mshr miss rate for demand accesses
system.cpu.dcache.demand_mshr_miss_rate::total     0.006853                       # mshr miss rate for demand accesses
system.cpu.dcache.overall_mshr_miss_rate::cpu.data     0.006908                       # mshr miss rate for overall accesses
system.cpu.dcache.overall_mshr_miss_rate::total     0.006908                       # mshr miss rate for overall accesses
system.cpu.dcache.ReadReq_avg_mshr_miss_latency::cpu.data 83297.493354                       # average ReadReq mshr miss latency
system.cpu.dcache.ReadReq_avg_mshr_miss_latency::total 83297.493354                       # average ReadReq mshr miss latency
system.cpu.dcache.WriteReq_avg_mshr_miss_latency::cpu.data 88785.299286                       # average WriteReq mshr miss latency
system.cpu.dcache.WriteReq_avg_mshr_miss_latency::total 88785.299286                       # average WriteReq mshr miss latency
system.cpu.dcache.SoftPFReq_avg_mshr_miss_latency::cpu.data 87123.686584                       # average SoftPFReq mshr miss latency
system.cpu.dcache.SoftPFReq_avg_mshr_miss_latency::total 87123.686584                       # average SoftPFReq mshr miss latency
system.cpu.dcache.demand_avg_mshr_miss_latency::cpu.data 84891.109973                       # average overall mshr miss latency
system.cpu.dcache.demand_avg_mshr_miss_latency::total 84891.109973                       # average overall mshr miss latency
system.cpu.dcache.overall_avg_mshr_miss_latency::cpu.data 84909.000085                       # average overall mshr miss latency
system.cpu.dcache.overall_avg_mshr_miss_latency::total 84909.000085                       # average overall mshr miss latency
system.cpu.dcache.no_allocate_misses                0                       # Number of misses that were no-allocate
system.cpu.dtb_walker_cache.tags.replacements            0                       # number of replacements
system.cpu.dtb_walker_cache.tags.tagsinuse            0                       # Cycle average of tags in use
system.cpu.dtb_walker_cache.tags.total_refs            0                       # Total number of references to valid blocks.
system.cpu.dtb_walker_cache.tags.sampled_refs            0                       # Sample count of references to valid blocks.
system.cpu.dtb_walker_cache.tags.avg_refs          nan                       # Average number of references to valid blocks.
system.cpu.dtb_walker_cache.tags.warmup_cycle            0                       # Cycle when the warmup percentage was hit.
system.cpu.dtb_walker_cache.tags.tag_accesses            0                       # Number of tag accesses
system.cpu.dtb_walker_cache.tags.data_accesses            0                       # Number of data accesses
system.cpu.dtb_walker_cache.blocked_cycles::no_mshrs            0                       # number of cycles access was blocked
system.cpu.dtb_walker_cache.blocked_cycles::no_targets            0                       # number of cycles access was blocked
system.cpu.dtb_walker_cache.blocked::no_mshrs            0                       # number of cycles access was blocked
system.cpu.dtb_walker_cache.blocked::no_targets            0                       # number of cycles access was blocked
system.cpu.dtb_walker_cache.avg_blocked_cycles::no_mshrs          nan                       # average number of cycles each access was blocked
system.cpu.dtb_walker_cache.avg_blocked_cycles::no_targets          nan                       # average number of cycles each access was blocked
system.cpu.dtb_walker_cache.fast_writes             0                       # number of fast writes performed
system.cpu.dtb_walker_cache.cache_copies            0                       # number of cache copies performed
system.cpu.dtb_walker_cache.no_allocate_misses            0                       # Number of misses that were no-allocate
system.cpu.icache.tags.replacements                45                       # number of replacements
system.cpu.icache.tags.tagsinuse           661.720122                       # Cycle average of tags in use
system.cpu.icache.tags.total_refs           687396869                       # Total number of references to valid blocks.
system.cpu.icache.tags.sampled_refs               994                       # Sample count of references to valid blocks.
system.cpu.icache.tags.avg_refs          691546.145875                       # Average number of references to valid blocks.
system.cpu.icache.tags.warmup_cycle                 0                       # Cycle when the warmup percentage was hit.
system.cpu.icache.tags.occ_blocks::cpu.inst   661.720122                       # Average occupied blocks per requestor
system.cpu.icache.tags.occ_percent::cpu.inst     0.323106                       # Average percentage of cache occupancy
system.cpu.icache.tags.occ_percent::total     0.323106                       # Average percentage of cache occupancy
system.cpu.icache.tags.occ_task_id_blocks::1024          949                       # Occupied blocks per task id
system.cpu.icache.tags.age_task_id_blocks_1024::1            7                       # Occupied blocks per task id
system.cpu.icache.tags.age_task_id_blocks_1024::3           25                       # Occupied blocks per task id
system.cpu.icache.tags.age_task_id_blocks_1024::4          917                       # Occupied blocks per task id
system.cpu.icache.tags.occ_task_id_percent::1024     0.463379                       # Percentage of cache occupancy per task id
system.cpu.icache.tags.tag_accesses        1374796720                       # Number of tag accesses
system.cpu.icache.tags.data_accesses       1374796720                       # Number of data accesses
system.cpu.icache.ReadReq_hits::cpu.inst    687396869                       # number of ReadReq hits
system.cpu.icache.ReadReq_hits::total       687396869                       # number of ReadReq hits
system.cpu.icache.demand_hits::cpu.inst     687396869                       # number of demand (read+write) hits
system.cpu.icache.demand_hits::total        687396869                       # number of demand (read+write) hits
system.cpu.icache.overall_hits::cpu.inst    687396869                       # number of overall hits
system.cpu.icache.overall_hits::total       687396869                       # number of overall hits
system.cpu.icache.ReadReq_misses::cpu.inst          994                       # number of ReadReq misses
system.cpu.icache.ReadReq_misses::total           994                       # number of ReadReq misses
system.cpu.icache.demand_misses::cpu.inst          994                       # number of demand (read+write) misses
system.cpu.icache.demand_misses::total            994                       # number of demand (read+write) misses
system.cpu.icache.overall_misses::cpu.inst          994                       # number of overall misses
system.cpu.icache.overall_misses::total           994                       # number of overall misses
system.cpu.icache.ReadReq_miss_latency::cpu.inst     77807500                       # number of ReadReq miss cycles
system.cpu.icache.ReadReq_miss_latency::total     77807500                       # number of ReadReq miss cycles
system.cpu.icache.demand_miss_latency::cpu.inst     77807500                       # number of demand (read+write) miss cycles
system.cpu.icache.demand_miss_latency::total     77807500                       # number of demand (read+write) miss cycles
system.cpu.icache.overall_miss_latency::cpu.inst     77807500                       # number of overall miss cycles
system.cpu.icache.overall_miss_latency::total     77807500                       # number of overall miss cycles
system.cpu.icache.ReadReq_accesses::cpu.inst    687397863                       # number of ReadReq accesses(hits+misses)
system.cpu.icache.ReadReq_accesses::total    687397863                       # number of ReadReq accesses(hits+misses)
system.cpu.icache.demand_accesses::cpu.inst    687397863                       # number of demand (read+write) accesses
system.cpu.icache.demand_accesses::total    687397863                       # number of demand (read+write) accesses
system.cpu.icache.overall_accesses::cpu.inst    687397863                       # number of overall (read+write) accesses
system.cpu.icache.overall_accesses::total    687397863                       # number of overall (read+write) accesses
system.cpu.icache.ReadReq_miss_rate::cpu.inst     0.000001                       # miss rate for ReadReq accesses
system.cpu.icache.ReadReq_miss_rate::total     0.000001                       # miss rate for ReadReq accesses
system.cpu.icache.demand_miss_rate::cpu.inst     0.000001                       # miss rate for demand accesses
system.cpu.icache.demand_miss_rate::total     0.000001                       # miss rate for demand accesses
system.cpu.icache.overall_miss_rate::cpu.inst     0.000001                       # miss rate for overall accesses
system.cpu.icache.overall_miss_rate::total     0.000001                       # miss rate for overall accesses
system.cpu.icache.ReadReq_avg_miss_latency::cpu.inst 78277.162978                       # average ReadReq miss latency
system.cpu.icache.ReadReq_avg_miss_latency::total 78277.162978                       # average ReadReq miss latency
system.cpu.icache.demand_avg_miss_latency::cpu.inst 78277.162978                       # average overall miss latency
system.cpu.icache.demand_avg_miss_latency::total 78277.162978                       # average overall miss latency
system.cpu.icache.overall_avg_miss_latency::cpu.inst 78277.162978                       # average overall miss latency
system.cpu.icache.overall_avg_miss_latency::total 78277.162978                       # average overall miss latency
system.cpu.icache.blocked_cycles::no_mshrs            0                       # number of cycles access was blocked
system.cpu.icache.blocked_cycles::no_targets            0                       # number of cycles access was blocked
system.cpu.icache.blocked::no_mshrs                 0                       # number of cycles access was blocked
system.cpu.icache.blocked::no_targets               0                       # number of cycles access was blocked
system.cpu.icache.avg_blocked_cycles::no_mshrs          nan                       # average number of cycles each access was blocked
system.cpu.icache.avg_blocked_cycles::no_targets          nan                       # average number of cycles each access was blocked
system.cpu.icache.fast_writes                       0                       # number of fast writes performed
system.cpu.icache.cache_copies                      0                       # number of cache copies performed
system.cpu.icache.writebacks::writebacks           45                       # number of writebacks
system.cpu.icache.writebacks::total                45                       # number of writebacks
system.cpu.icache.ReadReq_mshr_misses::cpu.inst          994                       # number of ReadReq MSHR misses
system.cpu.icache.ReadReq_mshr_misses::total          994                       # number of ReadReq MSHR misses
system.cpu.icache.demand_mshr_misses::cpu.inst          994                       # number of demand (read+write) MSHR misses
system.cpu.icache.demand_mshr_misses::total          994                       # number of demand (read+write) MSHR misses
system.cpu.icache.overall_mshr_misses::cpu.inst          994                       # number of overall MSHR misses
system.cpu.icache.overall_mshr_misses::total          994                       # number of overall MSHR misses
system.cpu.icache.ReadReq_mshr_miss_latency::cpu.inst     76813500                       # number of ReadReq MSHR miss cycles
system.cpu.icache.ReadReq_mshr_miss_latency::total     76813500                       # number of ReadReq MSHR miss cycles
system.cpu.icache.demand_mshr_miss_latency::cpu.inst     76813500                       # number of demand (read+write) MSHR miss cycles
system.cpu.icache.demand_mshr_miss_latency::total     76813500                       # number of demand (read+write) MSHR miss cycles
system.cpu.icache.overall_mshr_miss_latency::cpu.inst     76813500                       # number of overall MSHR miss cycles
system.cpu.icache.overall_mshr_miss_latency::total     76813500                       # number of overall MSHR miss cycles
system.cpu.icache.ReadReq_mshr_miss_rate::cpu.inst     0.000001                       # mshr miss rate for ReadReq accesses
system.cpu.icache.ReadReq_mshr_miss_rate::total     0.000001                       # mshr miss rate for ReadReq accesses
system.cpu.icache.demand_mshr_miss_rate::cpu.inst     0.000001                       # mshr miss rate for demand accesses
system.cpu.icache.demand_mshr_miss_rate::total     0.000001                       # mshr miss rate for demand accesses
system.cpu.icache.overall_mshr_miss_rate::cpu.inst     0.000001                       # mshr miss rate for overall accesses
system.cpu.icache.overall_mshr_miss_rate::total     0.000001                       # mshr miss rate for overall accesses
system.cpu.icache.ReadReq_avg_mshr_miss_latency::cpu.inst 77277.162978                       # average ReadReq mshr miss latency
system.cpu.icache.ReadReq_avg_mshr_miss_latency::total 77277.162978                       # average ReadReq mshr miss latency
system.cpu.icache.demand_avg_mshr_miss_latency::cpu.inst 77277.162978                       # average overall mshr miss latency
system.cpu.icache.demand_avg_mshr_miss_latency::total 77277.162978                       # average overall mshr miss latency
system.cpu.icache.overall_avg_mshr_miss_latency::cpu.inst 77277.162978                       # average overall mshr miss latency
system.cpu.icache.overall_avg_mshr_miss_latency::total 77277.162978                       # average overall mshr miss latency
system.cpu.icache.no_allocate_misses                0                       # Number of misses that were no-allocate
system.cpu.itb_walker_cache.tags.replacements            0                       # number of replacements
system.cpu.itb_walker_cache.tags.tagsinuse            0                       # Cycle average of tags in use
system.cpu.itb_walker_cache.tags.total_refs            0                       # Total number of references to valid blocks.
system.cpu.itb_walker_cache.tags.sampled_refs            0                       # Sample count of references to valid blocks.
system.cpu.itb_walker_cache.tags.avg_refs          nan                       # Average number of references to valid blocks.
system.cpu.itb_walker_cache.tags.warmup_cycle            0                       # Cycle when the warmup percentage was hit.
system.cpu.itb_walker_cache.tags.tag_accesses            0                       # Number of tag accesses
system.cpu.itb_walker_cache.tags.data_accesses            0                       # Number of data accesses
system.cpu.itb_walker_cache.blocked_cycles::no_mshrs            0                       # number of cycles access was blocked
system.cpu.itb_walker_cache.blocked_cycles::no_targets            0                       # number of cycles access was blocked
system.cpu.itb_walker_cache.blocked::no_mshrs            0                       # number of cycles access was blocked
system.cpu.itb_walker_cache.blocked::no_targets            0                       # number of cycles access was blocked
system.cpu.itb_walker_cache.avg_blocked_cycles::no_mshrs          nan                       # average number of cycles each access was blocked
system.cpu.itb_walker_cache.avg_blocked_cycles::no_targets          nan                       # average number of cycles each access was blocked
system.cpu.itb_walker_cache.fast_writes             0                       # number of fast writes performed
system.cpu.itb_walker_cache.cache_copies            0                       # number of cache copies performed
system.cpu.itb_walker_cache.no_allocate_misses            0                       # Number of misses that were no-allocate
system.l2.tags.replacements                   2295257                       # number of replacements
system.l2.tags.tagsinuse                    60.495875                       # Cycle average of tags in use
system.l2.tags.total_refs                       33162                       # Total number of references to valid blocks.
system.l2.tags.sampled_refs                   2295292                       # Sample count of references to valid blocks.
system.l2.tags.avg_refs                      0.014448                       # Average number of references to valid blocks.
system.l2.tags.warmup_cycle                3483828000                       # Cycle when the warmup percentage was hit.
system.l2.tags.occ_blocks::writebacks       27.444673                       # Average occupied blocks per requestor
system.l2.tags.occ_blocks::cpu.inst          0.220897                       # Average occupied blocks per requestor
system.l2.tags.occ_blocks::cpu.data         32.830305                       # Average occupied blocks per requestor
system.l2.tags.occ_percent::writebacks       0.428823                       # Average percentage of cache occupancy
system.l2.tags.occ_percent::cpu.inst         0.003452                       # Average percentage of cache occupancy
system.l2.tags.occ_percent::cpu.data         0.512974                       # Average percentage of cache occupancy
system.l2.tags.occ_percent::total            0.945248                       # Average percentage of cache occupancy
system.l2.tags.occ_task_id_blocks::1024            35                       # Occupied blocks per task id
system.l2.tags.age_task_id_blocks_1024::1            9                       # Occupied blocks per task id
system.l2.tags.age_task_id_blocks_1024::2           11                       # Occupied blocks per task id
system.l2.tags.age_task_id_blocks_1024::3           15                       # Occupied blocks per task id
system.l2.tags.occ_task_id_percent::1024     0.546875                       # Percentage of cache occupancy per task id
system.l2.tags.tag_accesses                   6972513                       # Number of tag accesses
system.l2.tags.data_accesses                  6972513                       # Number of data accesses
system.l2.WritebackDirty_hits::writebacks       871777                       # number of WritebackDirty hits
system.l2.WritebackDirty_hits::total           871777                       # number of WritebackDirty hits
system.l2.WritebackClean_hits::writebacks           45                       # number of WritebackClean hits
system.l2.WritebackClean_hits::total               45                       # number of WritebackClean hits
system.l2.ReadExReq_hits::cpu.data               6513                       # number of ReadExReq hits
system.l2.ReadExReq_hits::total                  6513                       # number of ReadExReq hits
system.l2.ReadSharedReq_hits::cpu.data          26649                       # number of ReadSharedReq hits
system.l2.ReadSharedReq_hits::total             26649                       # number of ReadSharedReq hits
system.l2.demand_hits::cpu.data                 33162                       # number of demand (read+write) hits
system.l2.demand_hits::total                    33162                       # number of demand (read+write) hits
system.l2.overall_hits::cpu.data                33162                       # number of overall hits
system.l2.overall_hits::total                   33162                       # number of overall hits
system.l2.ReadExReq_misses::cpu.data           582472                       # number of ReadExReq misses
system.l2.ReadExReq_misses::total              582472                       # number of ReadExReq misses
system.l2.ReadCleanReq_misses::cpu.inst           994                       # number of ReadCleanReq misses
system.l2.ReadCleanReq_misses::total              994                       # number of ReadCleanReq misses
system.l2.ReadSharedReq_misses::cpu.data      1428989                       # number of ReadSharedReq misses
system.l2.ReadSharedReq_misses::total         1428989                       # number of ReadSharedReq misses
system.l2.demand_misses::cpu.inst                 994                       # number of demand (read+write) misses
system.l2.demand_misses::cpu.data             2011461                       # number of demand (read+write) misses
system.l2.demand_misses::total                2012455                       # number of demand (read+write) misses
system.l2.overall_misses::cpu.inst                994                       # number of overall misses
system.l2.overall_misses::cpu.data            2011461                       # number of overall misses
system.l2.overall_misses::total               2012455                       # number of overall misses
system.l2.ReadExReq_miss_latency::cpu.data  51341344500                       # number of ReadExReq miss cycles
system.l2.ReadExReq_miss_latency::total   51341344500                       # number of ReadExReq miss cycles
system.l2.ReadCleanReq_miss_latency::cpu.inst     75322500                       # number of ReadCleanReq miss cycles
system.l2.ReadCleanReq_miss_latency::total     75322500                       # number of ReadCleanReq miss cycles
system.l2.ReadSharedReq_miss_latency::cpu.data 118850337000                       # number of ReadSharedReq miss cycles
system.l2.ReadSharedReq_miss_latency::total 118850337000                       # number of ReadSharedReq miss cycles
system.l2.demand_miss_latency::cpu.inst      75322500                       # number of demand (read+write) miss cycles
system.l2.demand_miss_latency::cpu.data  170191681500                       # number of demand (read+write) miss cycles
system.l2.demand_miss_latency::total     170267004000                       # number of demand (read+write) miss cycles
system.l2.overall_miss_latency::cpu.inst     75322500                       # number of overall miss cycles
system.l2.overall_miss_latency::cpu.data 170191681500                       # number of overall miss cycles
system.l2.overall_miss_latency::total    170267004000                       # number of overall miss cycles
system.l2.WritebackDirty_accesses::writebacks       871777                       # number of WritebackDirty accesses(hits+misses)
system.l2.WritebackDirty_accesses::total       871777                       # number of WritebackDirty accesses(hits+misses)
system.l2.WritebackClean_accesses::writebacks           45                       # number of WritebackClean accesses(hits+misses)
system.l2.WritebackClean_accesses::total           45                       # number of WritebackClean accesses(hits+misses)
system.l2.ReadExReq_accesses::cpu.data         588985                       # number of ReadExReq accesses(hits+misses)
system.l2.ReadExReq_accesses::total            588985                       # number of ReadExReq accesses(hits+misses)
system.l2.ReadCleanReq_accesses::cpu.inst          994                       # number of ReadCleanReq accesses(hits+misses)
system.l2.ReadCleanReq_accesses::total            994                       # number of ReadCleanReq accesses(hits+misses)
system.l2.ReadSharedReq_accesses::cpu.data      1455638                       # number of ReadSharedReq accesses(hits+misses)
system.l2.ReadSharedReq_accesses::total       1455638                       # number of ReadSharedReq accesses(hits+misses)
system.l2.demand_accesses::cpu.inst               994                       # number of demand (read+write) accesses
system.l2.demand_accesses::cpu.data           2044623                       # number of demand (read+write) accesses
system.l2.demand_accesses::total              2045617                       # number of demand (read+write) accesses
system.l2.overall_accesses::cpu.inst              994                       # number of overall (read+write) accesses
system.l2.overall_accesses::cpu.data          2044623                       # number of overall (read+write) accesses
system.l2.overall_accesses::total             2045617                       # number of overall (read+write) accesses
system.l2.ReadExReq_miss_rate::cpu.data      0.988942                       # miss rate for ReadExReq accesses
system.l2.ReadExReq_miss_rate::total         0.988942                       # miss rate for ReadExReq accesses
system.l2.ReadCleanReq_miss_rate::cpu.inst            1                       # miss rate for ReadCleanReq accesses
system.l2.ReadCleanReq_miss_rate::total             1                       # miss rate for ReadCleanReq accesses
system.l2.ReadSharedReq_miss_rate::cpu.data     0.981693                       # miss rate for ReadSharedReq accesses
system.l2.ReadSharedReq_miss_rate::total     0.981693                       # miss rate for ReadSharedReq accesses
system.l2.demand_miss_rate::cpu.inst                1                       # miss rate for demand accesses
system.l2.demand_miss_rate::cpu.data         0.983781                       # miss rate for demand accesses
system.l2.demand_miss_rate::total            0.983789                       # miss rate for demand accesses
system.l2.overall_miss_rate::cpu.inst               1                       # miss rate for overall accesses
system.l2.overall_miss_rate::cpu.data        0.983781                       # miss rate for overall accesses
system.l2.overall_miss_rate::total           0.983789                       # miss rate for overall accesses
system.l2.ReadExReq_avg_miss_latency::cpu.data 88143.884170                       # average ReadExReq miss latency
system.l2.ReadExReq_avg_miss_latency::total 88143.884170                       # average ReadExReq miss latency
system.l2.ReadCleanReq_avg_miss_latency::cpu.inst 75777.162978                       # average ReadCleanReq miss latency
system.l2.ReadCleanReq_avg_miss_latency::total 75777.162978                       # average ReadCleanReq miss latency
system.l2.ReadSharedReq_avg_miss_latency::cpu.data 83170.925039                       # average ReadSharedReq miss latency
system.l2.ReadSharedReq_avg_miss_latency::total 83170.925039                       # average ReadSharedReq miss latency
system.l2.demand_avg_miss_latency::cpu.inst 75777.162978                       # average overall miss latency
system.l2.demand_avg_miss_latency::cpu.data 84610.977543                       # average overall miss latency
system.l2.demand_avg_miss_latency::total 84606.614309                       # average overall miss latency
system.l2.overall_avg_miss_latency::cpu.inst 75777.162978                       # average overall miss latency
system.l2.overall_avg_miss_latency::cpu.data 84610.977543                       # average overall miss latency
system.l2.overall_avg_miss_latency::total 84606.614309                       # average overall miss latency
system.l2.blocked_cycles::no_mshrs                  0                       # number of cycles access was blocked
system.l2.blocked_cycles::no_targets                0                       # number of cycles access was blocked
system.l2.blocked::no_mshrs                         0                       # number of cycles access was blocked
system.l2.blocked::no_targets                       0                       # number of cycles access was blocked
system.l2.avg_blocked_cycles::no_mshrs            nan                       # average number of cycles each access was blocked
system.l2.avg_blocked_cycles::no_targets          nan                       # average number of cycles each access was blocked
system.l2.fast_writes                               0                       # number of fast writes performed
system.l2.cache_copies                              0                       # number of cache copies performed
system.l2.writebacks::writebacks               838602                       # number of writebacks
system.l2.writebacks::total                    838602                       # number of writebacks
system.l2.CleanEvict_mshr_misses::writebacks      1170797                       # number of CleanEvict MSHR misses
system.l2.CleanEvict_mshr_misses::total       1170797                       # number of CleanEvict MSHR misses
system.l2.ReadExReq_mshr_misses::cpu.data       582472                       # number of ReadExReq MSHR misses
system.l2.ReadExReq_mshr_misses::total         582472                       # number of ReadExReq MSHR misses
system.l2.ReadCleanReq_mshr_misses::cpu.inst          994                       # number of ReadCleanReq MSHR misses
system.l2.ReadCleanReq_mshr_misses::total          994                       # number of ReadCleanReq MSHR misses
system.l2.ReadSharedReq_mshr_misses::cpu.data      1428989                       # number of ReadSharedReq MSHR misses
system.l2.ReadSharedReq_mshr_misses::total      1428989                       # number of ReadSharedReq MSHR misses
system.l2.demand_mshr_misses::cpu.inst            994                       # number of demand (read+write) MSHR misses
system.l2.demand_mshr_misses::cpu.data        2011461                       # number of demand (read+write) MSHR misses
system.l2.demand_mshr_misses::total           2012455                       # number of demand (read+write) MSHR misses
system.l2.overall_mshr_misses::cpu.inst           994                       # number of overall MSHR misses
system.l2.overall_mshr_misses::cpu.data       2011461                       # number of overall MSHR misses
system.l2.overall_mshr_misses::total          2012455                       # number of overall MSHR misses
system.l2.ReadExReq_mshr_miss_latency::cpu.data  45516624500                       # number of ReadExReq MSHR miss cycles
system.l2.ReadExReq_mshr_miss_latency::total  45516624500                       # number of ReadExReq MSHR miss cycles
system.l2.ReadCleanReq_mshr_miss_latency::cpu.inst     65382500                       # number of ReadCleanReq MSHR miss cycles
system.l2.ReadCleanReq_mshr_miss_latency::total     65382500                       # number of ReadCleanReq MSHR miss cycles
system.l2.ReadSharedReq_mshr_miss_latency::cpu.data 104560447000                       # number of ReadSharedReq MSHR miss cycles
system.l2.ReadSharedReq_mshr_miss_latency::total 104560447000                       # number of ReadSharedReq MSHR miss cycles
system.l2.demand_mshr_miss_latency::cpu.inst     65382500                       # number of demand (read+write) MSHR miss cycles
system.l2.demand_mshr_miss_latency::cpu.data 150077071500                       # number of demand (read+write) MSHR miss cycles
system.l2.demand_mshr_miss_latency::total 150142454000                       # number of demand (read+write) MSHR miss cycles
system.l2.overall_mshr_miss_latency::cpu.inst     65382500                       # number of overall MSHR miss cycles
system.l2.overall_mshr_miss_latency::cpu.data 150077071500                       # number of overall MSHR miss cycles
system.l2.overall_mshr_miss_latency::total 150142454000                       # number of overall MSHR miss cycles
system.l2.CleanEvict_mshr_miss_rate::writebacks          inf                       # mshr miss rate for CleanEvict accesses
system.l2.CleanEvict_mshr_miss_rate::total          inf                       # mshr miss rate for CleanEvict accesses
system.l2.ReadExReq_mshr_miss_rate::cpu.data     0.988942                       # mshr miss rate for ReadExReq accesses
system.l2.ReadExReq_mshr_miss_rate::total     0.988942                       # mshr miss rate for ReadExReq accesses
system.l2.ReadCleanReq_mshr_miss_rate::cpu.inst            1                       # mshr miss rate for ReadCleanReq accesses
system.l2.ReadCleanReq_mshr_miss_rate::total            1                       # mshr miss rate for ReadCleanReq accesses
system.l2.ReadSharedReq_mshr_miss_rate::cpu.data     0.981693                       # mshr miss rate for ReadSharedReq accesses
system.l2.ReadSharedReq_mshr_miss_rate::total     0.981693                       # mshr miss rate for ReadSharedReq accesses
system.l2.demand_mshr_miss_rate::cpu.inst            1                       # mshr miss rate for demand accesses
system.l2.demand_mshr_miss_rate::cpu.data     0.983781                       # mshr miss rate for demand accesses
system.l2.demand_mshr_miss_rate::total       0.983789                       # mshr miss rate for demand accesses
system.l2.overall_mshr_miss_rate::cpu.inst            1                       # mshr miss rate for overall accesses
system.l2.overall_mshr_miss_rate::cpu.data     0.983781                       # mshr miss rate for overall accesses
system.l2.overall_mshr_miss_rate::total      0.983789                       # mshr miss rate for overall accesses
system.l2.ReadExReq_avg_mshr_miss_latency::cpu.data 78143.884170                       # average ReadExReq mshr miss latency
system.l2.ReadExReq_avg_mshr_miss_latency::total 78143.884170                       # average ReadExReq mshr miss latency
system.l2.ReadCleanReq_avg_mshr_miss_latency::cpu.inst 65777.162978                       # average ReadCleanReq mshr miss latency
system.l2.ReadCleanReq_avg_mshr_miss_latency::total 65777.162978                       # average ReadCleanReq mshr miss latency
system.l2.ReadSharedReq_avg_mshr_miss_latency::cpu.data 73170.925039                       # average ReadSharedReq mshr miss latency
system.l2.ReadSharedReq_avg_mshr_miss_latency::total 73170.925039                       # average ReadSharedReq mshr miss latency
system.l2.demand_avg_mshr_miss_latency::cpu.inst 65777.162978                       # average overall mshr miss latency
system.l2.demand_avg_mshr_miss_latency::cpu.data 74610.977543                       # average overall mshr miss latency
system.l2.demand_avg_mshr_miss_latency::total 74606.614309                       # average overall mshr miss latency
system.l2.overall_avg_mshr_miss_latency::cpu.inst 65777.162978                       # average overall mshr miss latency
system.l2.overall_avg_mshr_miss_latency::cpu.data 74610.977543                       # average overall mshr miss latency
system.l2.overall_avg_mshr_miss_latency::total 74606.614309                       # average overall mshr miss latency
system.l2.no_allocate_misses                        0                       # Number of misses that were no-allocate
system.membus.trans_dist::ReadResp            1429983                       # Transaction distribution
system.membus.trans_dist::WritebackDirty       838602                       # Transaction distribution
system.membus.trans_dist::CleanEvict          1170842                       # Transaction distribution
system.membus.trans_dist::ReadExReq            582472                       # Transaction distribution
system.membus.trans_dist::ReadExResp           582472                       # Transaction distribution
system.membus.trans_dist::ReadSharedReq       1429983                       # Transaction distribution
system.membus.pkt_count_system.l2.mem_side::system.mem_ctrls.port      6034354                       # Packet count per connected master and slave (bytes)
system.membus.pkt_count_system.l2.mem_side::total      6034354                       # Packet count per connected master and slave (bytes)
system.membus.pkt_count::total                6034354                       # Packet count per connected master and slave (bytes)
system.membus.pkt_size_system.l2.mem_side::system.mem_ctrls.port    182467648                       # Cumulative packet size per connected master and slave (bytes)
system.membus.pkt_size_system.l2.mem_side::total    182467648                       # Cumulative packet size per connected master and slave (bytes)
system.membus.pkt_size::total               182467648                       # Cumulative packet size per connected master and slave (bytes)
system.membus.snoops                                0                       # Total snoops (count)
system.membus.snoop_fanout::samples           4021899                       # Request fanout histogram
system.membus.snoop_fanout::mean                    0                       # Request fanout histogram
system.membus.snoop_fanout::stdev                   0                       # Request fanout histogram
system.membus.snoop_fanout::underflows              0      0.00%      0.00% # Request fanout histogram
system.membus.snoop_fanout::0                 4021899    100.00%    100.00% # Request fanout histogram
system.membus.snoop_fanout::1                       0      0.00%    100.00% # Request fanout histogram
system.membus.snoop_fanout::overflows               0      0.00%    100.00% # Request fanout histogram
system.membus.snoop_fanout::min_value               0                       # Request fanout histogram
system.membus.snoop_fanout::max_value               0                       # Request fanout histogram
system.membus.snoop_fanout::total             4021899                       # Request fanout histogram
system.membus.reqLayer2.occupancy          7382780000                       # Layer occupancy (ticks)
system.membus.reqLayer2.utilization               0.6                       # Layer utilization (%)
system.membus.respLayer1.occupancy        10956075750                       # Layer occupancy (ticks)
system.membus.respLayer1.utilization              0.9                       # Layer utilization (%)
system.tol2bus.snoop_filter.tot_requests      4088237                       # Total number of requests made to the snoop filter.
system.tol2bus.snoop_filter.hit_single_requests      2042620                       # Number of requests hitting in the snoop filter with a single holder of the requested data.
system.tol2bus.snoop_filter.hit_multi_requests            1                       # Number of requests hitting in the snoop filter with multiple (>1) holders of the requested data.
system.tol2bus.snoop_filter.tot_snoops        1456610                       # Total number of snoops made to the snoop filter.
system.tol2bus.snoop_filter.hit_single_snoops      1456609                       # Number of snoops hitting in the snoop filter with a single holder of the requested data.
system.tol2bus.snoop_filter.hit_multi_snoops            1                       # Number of snoops hitting in the snoop filter with multiple (>1) holders of the requested data.
system.tol2bus.trans_dist::ReadResp           1456632                       # Transaction distribution
system.tol2bus.trans_dist::WritebackDirty      1710379                       # Transaction distribution
system.tol2bus.trans_dist::WritebackClean           45                       # Transaction distribution
system.tol2bus.trans_dist::CleanEvict         2627452                       # Transaction distribution
system.tol2bus.trans_dist::ReadExReq           588985                       # Transaction distribution
system.tol2bus.trans_dist::ReadExResp          588985                       # Transaction distribution
system.tol2bus.trans_dist::ReadCleanReq           994                       # Transaction distribution
system.tol2bus.trans_dist::ReadSharedReq      1455638                       # Transaction distribution
system.tol2bus.pkt_count_system.cpu.icache.mem_side::system.l2.cpu_side         2033                       # Packet count per connected master and slave (bytes)
system.tol2bus.pkt_count_system.cpu.dcache.mem_side::system.l2.cpu_side      6131820                       # Packet count per connected master and slave (bytes)
system.tol2bus.pkt_count::total               6133853                       # Packet count per connected master and slave (bytes)
system.tol2bus.pkt_size_system.cpu.icache.mem_side::system.l2.cpu_side        66496                       # Cumulative packet size per connected master and slave (bytes)
system.tol2bus.pkt_size_system.cpu.dcache.mem_side::system.l2.cpu_side    186649600                       # Cumulative packet size per connected master and slave (bytes)
system.tol2bus.pkt_size::total              186716096                       # Cumulative packet size per connected master and slave (bytes)
system.tol2bus.snoops                         2295257                       # Total snoops (count)
system.tol2bus.snoop_fanout::samples          4340874                       # Request fanout histogram
system.tol2bus.snoop_fanout::mean            0.335557                       # Request fanout histogram
system.tol2bus.snoop_fanout::stdev           0.472185                       # Request fanout histogram
system.tol2bus.snoop_fanout::underflows             0      0.00%      0.00% # Request fanout histogram
system.tol2bus.snoop_fanout::0                2884263     66.44%     66.44% # Request fanout histogram
system.tol2bus.snoop_fanout::1                1456610     33.56%    100.00% # Request fanout histogram
system.tol2bus.snoop_fanout::2                      1      0.00%    100.00% # Request fanout histogram
system.tol2bus.snoop_fanout::3                      0      0.00%    100.00% # Request fanout histogram
system.tol2bus.snoop_fanout::4                      0      0.00%    100.00% # Request fanout histogram
system.tol2bus.snoop_fanout::overflows              0      0.00%    100.00% # Request fanout histogram
system.tol2bus.snoop_fanout::min_value              0                       # Request fanout histogram
system.tol2bus.snoop_fanout::max_value              2                       # Request fanout histogram
system.tol2bus.snoop_fanout::total            4340874                       # Request fanout histogram
system.tol2bus.reqLayer0.occupancy         2915940500                       # Layer occupancy (ticks)
system.tol2bus.reqLayer0.utilization              0.3                       # Layer utilization (%)
system.tol2bus.respLayer0.occupancy           1491000                       # Layer occupancy (ticks)
system.tol2bus.respLayer0.utilization             0.0                       # Layer utilization (%)
system.tol2bus.respLayer1.occupancy        3066934500                       # Layer occupancy (ticks)
system.tol2bus.respLayer1.utilization             0.3                       # Layer utilization (%)

---------- End Simulation Statistics   ----------
