
---------- Begin Simulation Statistics ----------
sim_seconds                                  1.061463                       # Number of seconds simulated
sim_ticks                                1061462713500                       # Number of ticks simulated
final_tick                               1061462713500                       # Number of ticks from beginning of simulation (restored from checkpoints and never reset)
sim_freq                                 1000000000000                       # Frequency of simulated ticks
host_inst_rate                                  37545                       # Simulator instruction rate (inst/s)
host_op_rate                                    54850                       # Simulator op (including micro ops) rate (op/s)
host_tick_rate                               79705289                       # Simulator tick rate (ticks/s)
host_mem_usage                                 828676                       # Number of bytes of host memory used
host_seconds                                 13317.34                       # Real time elapsed on the host
sim_insts                                   500000001                       # Number of instructions simulated
sim_ops                                     730450447                       # Number of ops (including micro ops) simulated
system.voltage_domain.voltage                       1                       # Voltage in Volts
system.clk_domain.clock                          1000                       # Clock period in ticks
system.mem_ctrls.bytes_read::cpu.inst           64320                       # Number of bytes read from this memory
system.mem_ctrls.bytes_read::cpu.data        48033152                       # Number of bytes read from this memory
system.mem_ctrls.bytes_read::total           48097472                       # Number of bytes read from this memory
system.mem_ctrls.bytes_inst_read::cpu.inst        64320                       # Number of instructions bytes read from this memory
system.mem_ctrls.bytes_inst_read::total         64320                       # Number of instructions bytes read from this memory
system.mem_ctrls.bytes_written::writebacks     24882112                       # Number of bytes written to this memory
system.mem_ctrls.bytes_written::total        24882112                       # Number of bytes written to this memory
system.mem_ctrls.num_reads::cpu.inst             1005                       # Number of read requests responded to by this memory
system.mem_ctrls.num_reads::cpu.data           750518                       # Number of read requests responded to by this memory
system.mem_ctrls.num_reads::total              751523                       # Number of read requests responded to by this memory
system.mem_ctrls.num_writes::writebacks        388783                       # Number of write requests responded to by this memory
system.mem_ctrls.num_writes::total             388783                       # Number of write requests responded to by this memory
system.mem_ctrls.bw_read::cpu.inst              60596                       # Total read bandwidth from this memory (bytes/s)
system.mem_ctrls.bw_read::cpu.data           45251850                       # Total read bandwidth from this memory (bytes/s)
system.mem_ctrls.bw_read::total              45312446                       # Total read bandwidth from this memory (bytes/s)
system.mem_ctrls.bw_inst_read::cpu.inst         60596                       # Instruction read bandwidth from this memory (bytes/s)
system.mem_ctrls.bw_inst_read::total            60596                       # Instruction read bandwidth from this memory (bytes/s)
system.mem_ctrls.bw_write::writebacks        23441343                       # Write bandwidth from this memory (bytes/s)
system.mem_ctrls.bw_write::total             23441343                       # Write bandwidth from this memory (bytes/s)
system.mem_ctrls.bw_total::writebacks        23441343                       # Total bandwidth to/from this memory (bytes/s)
system.mem_ctrls.bw_total::cpu.inst             60596                       # Total bandwidth to/from this memory (bytes/s)
system.mem_ctrls.bw_total::cpu.data          45251850                       # Total bandwidth to/from this memory (bytes/s)
system.mem_ctrls.bw_total::total             68753790                       # Total bandwidth to/from this memory (bytes/s)
system.mem_ctrls.readReqs                      751523                       # Number of read requests accepted
system.mem_ctrls.writeReqs                     388783                       # Number of write requests accepted
system.mem_ctrls.readBursts                    751523                       # Number of DRAM read bursts, including those serviced by the write queue
system.mem_ctrls.writeBursts                   388783                       # Number of DRAM write bursts, including those merged in the write queue
system.mem_ctrls.bytesReadDRAM               47995072                       # Total number of bytes read from DRAM
system.mem_ctrls.bytesReadWrQ                  102400                       # Total number of bytes read from write queue
system.mem_ctrls.bytesWritten                24878208                       # Total number of bytes written to DRAM
system.mem_ctrls.bytesReadSys                48097472                       # Total read bytes from the system interface side
system.mem_ctrls.bytesWrittenSys             24882112                       # Total written bytes from the system interface side
system.mem_ctrls.servicedByWrQ                   1600                       # Number of DRAM read bursts serviced by the write queue
system.mem_ctrls.mergedWrBursts                    30                       # Number of DRAM write bursts merged with an existing one
system.mem_ctrls.neitherReadNorWriteReqs       345879                       # Number of requests that are neither read nor write
system.mem_ctrls.perBankRdBursts::0             49024                       # Per bank write bursts
system.mem_ctrls.perBankRdBursts::1             47511                       # Per bank write bursts
system.mem_ctrls.perBankRdBursts::2             47920                       # Per bank write bursts
system.mem_ctrls.perBankRdBursts::3             44998                       # Per bank write bursts
system.mem_ctrls.perBankRdBursts::4             44493                       # Per bank write bursts
system.mem_ctrls.perBankRdBursts::5             44165                       # Per bank write bursts
system.mem_ctrls.perBankRdBursts::6             45995                       # Per bank write bursts
system.mem_ctrls.perBankRdBursts::7             45139                       # Per bank write bursts
system.mem_ctrls.perBankRdBursts::8             43018                       # Per bank write bursts
system.mem_ctrls.perBankRdBursts::9             43384                       # Per bank write bursts
system.mem_ctrls.perBankRdBursts::10            47180                       # Per bank write bursts
system.mem_ctrls.perBankRdBursts::11            47607                       # Per bank write bursts
system.mem_ctrls.perBankRdBursts::12            49425                       # Per bank write bursts
system.mem_ctrls.perBankRdBursts::13            49369                       # Per bank write bursts
system.mem_ctrls.perBankRdBursts::14            49767                       # Per bank write bursts
system.mem_ctrls.perBankRdBursts::15            50928                       # Per bank write bursts
system.mem_ctrls.perBankWrBursts::0             25147                       # Per bank write bursts
system.mem_ctrls.perBankWrBursts::1             24652                       # Per bank write bursts
system.mem_ctrls.perBankWrBursts::2             25931                       # Per bank write bursts
system.mem_ctrls.perBankWrBursts::3             23727                       # Per bank write bursts
system.mem_ctrls.perBankWrBursts::4             23143                       # Per bank write bursts
system.mem_ctrls.perBankWrBursts::5             22680                       # Per bank write bursts
system.mem_ctrls.perBankWrBursts::6             23927                       # Per bank write bursts
system.mem_ctrls.perBankWrBursts::7             23832                       # Per bank write bursts
system.mem_ctrls.perBankWrBursts::8             22880                       # Per bank write bursts
system.mem_ctrls.perBankWrBursts::9             22997                       # Per bank write bursts
system.mem_ctrls.perBankWrBursts::10            24360                       # Per bank write bursts
system.mem_ctrls.perBankWrBursts::11            24133                       # Per bank write bursts
system.mem_ctrls.perBankWrBursts::12            24701                       # Per bank write bursts
system.mem_ctrls.perBankWrBursts::13            25019                       # Per bank write bursts
system.mem_ctrls.perBankWrBursts::14            25286                       # Per bank write bursts
system.mem_ctrls.perBankWrBursts::15            26307                       # Per bank write bursts
system.mem_ctrls.numRdRetry                         0                       # Number of times read queue was full causing retry
system.mem_ctrls.numWrRetry                         0                       # Number of times write queue was full causing retry
system.mem_ctrls.totGap                  1061429958500                       # Total gap between requests
system.mem_ctrls.readPktSize::0                     0                       # Read request sizes (log2)
system.mem_ctrls.readPktSize::1                     0                       # Read request sizes (log2)
system.mem_ctrls.readPktSize::2                     0                       # Read request sizes (log2)
system.mem_ctrls.readPktSize::3                     0                       # Read request sizes (log2)
system.mem_ctrls.readPktSize::4                     0                       # Read request sizes (log2)
system.mem_ctrls.readPktSize::5                     0                       # Read request sizes (log2)
system.mem_ctrls.readPktSize::6                751523                       # Read request sizes (log2)
system.mem_ctrls.writePktSize::0                    0                       # Write request sizes (log2)
system.mem_ctrls.writePktSize::1                    0                       # Write request sizes (log2)
system.mem_ctrls.writePktSize::2                    0                       # Write request sizes (log2)
system.mem_ctrls.writePktSize::3                    0                       # Write request sizes (log2)
system.mem_ctrls.writePktSize::4                    0                       # Write request sizes (log2)
system.mem_ctrls.writePktSize::5                    0                       # Write request sizes (log2)
system.mem_ctrls.writePktSize::6               388783                       # Write request sizes (log2)
system.mem_ctrls.rdQLenPdf::0                  741295                       # What read queue length does an incoming req see
system.mem_ctrls.rdQLenPdf::1                    8083                       # What read queue length does an incoming req see
system.mem_ctrls.rdQLenPdf::2                     428                       # What read queue length does an incoming req see
system.mem_ctrls.rdQLenPdf::3                     117                       # What read queue length does an incoming req see
system.mem_ctrls.rdQLenPdf::4                       0                       # What read queue length does an incoming req see
system.mem_ctrls.rdQLenPdf::5                       0                       # What read queue length does an incoming req see
system.mem_ctrls.rdQLenPdf::6                       0                       # What read queue length does an incoming req see
system.mem_ctrls.rdQLenPdf::7                       0                       # What read queue length does an incoming req see
system.mem_ctrls.rdQLenPdf::8                       0                       # What read queue length does an incoming req see
system.mem_ctrls.rdQLenPdf::9                       0                       # What read queue length does an incoming req see
system.mem_ctrls.rdQLenPdf::10                      0                       # What read queue length does an incoming req see
system.mem_ctrls.rdQLenPdf::11                      0                       # What read queue length does an incoming req see
system.mem_ctrls.rdQLenPdf::12                      0                       # What read queue length does an incoming req see
system.mem_ctrls.rdQLenPdf::13                      0                       # What read queue length does an incoming req see
system.mem_ctrls.rdQLenPdf::14                      0                       # What read queue length does an incoming req see
system.mem_ctrls.rdQLenPdf::15                      0                       # What read queue length does an incoming req see
system.mem_ctrls.rdQLenPdf::16                      0                       # What read queue length does an incoming req see
system.mem_ctrls.rdQLenPdf::17                      0                       # What read queue length does an incoming req see
system.mem_ctrls.rdQLenPdf::18                      0                       # What read queue length does an incoming req see
system.mem_ctrls.rdQLenPdf::19                      0                       # What read queue length does an incoming req see
system.mem_ctrls.rdQLenPdf::20                      0                       # What read queue length does an incoming req see
system.mem_ctrls.rdQLenPdf::21                      0                       # What read queue length does an incoming req see
system.mem_ctrls.rdQLenPdf::22                      0                       # What read queue length does an incoming req see
system.mem_ctrls.rdQLenPdf::23                      0                       # What read queue length does an incoming req see
system.mem_ctrls.rdQLenPdf::24                      0                       # What read queue length does an incoming req see
system.mem_ctrls.rdQLenPdf::25                      0                       # What read queue length does an incoming req see
system.mem_ctrls.rdQLenPdf::26                      0                       # What read queue length does an incoming req see
system.mem_ctrls.rdQLenPdf::27                      0                       # What read queue length does an incoming req see
system.mem_ctrls.rdQLenPdf::28                      0                       # What read queue length does an incoming req see
system.mem_ctrls.rdQLenPdf::29                      0                       # What read queue length does an incoming req see
system.mem_ctrls.rdQLenPdf::30                      0                       # What read queue length does an incoming req see
system.mem_ctrls.rdQLenPdf::31                      0                       # What read queue length does an incoming req see
system.mem_ctrls.wrQLenPdf::0                       1                       # What write queue length does an incoming req see
system.mem_ctrls.wrQLenPdf::1                       1                       # What write queue length does an incoming req see
system.mem_ctrls.wrQLenPdf::2                       1                       # What write queue length does an incoming req see
system.mem_ctrls.wrQLenPdf::3                       1                       # What write queue length does an incoming req see
system.mem_ctrls.wrQLenPdf::4                       1                       # What write queue length does an incoming req see
system.mem_ctrls.wrQLenPdf::5                       1                       # What write queue length does an incoming req see
system.mem_ctrls.wrQLenPdf::6                       1                       # What write queue length does an incoming req see
system.mem_ctrls.wrQLenPdf::7                       1                       # What write queue length does an incoming req see
system.mem_ctrls.wrQLenPdf::8                       1                       # What write queue length does an incoming req see
system.mem_ctrls.wrQLenPdf::9                       1                       # What write queue length does an incoming req see
system.mem_ctrls.wrQLenPdf::10                      1                       # What write queue length does an incoming req see
system.mem_ctrls.wrQLenPdf::11                      1                       # What write queue length does an incoming req see
system.mem_ctrls.wrQLenPdf::12                      1                       # What write queue length does an incoming req see
system.mem_ctrls.wrQLenPdf::13                      1                       # What write queue length does an incoming req see
system.mem_ctrls.wrQLenPdf::14                      1                       # What write queue length does an incoming req see
system.mem_ctrls.wrQLenPdf::15                  14908                       # What write queue length does an incoming req see
system.mem_ctrls.wrQLenPdf::16                  15711                       # What write queue length does an incoming req see
system.mem_ctrls.wrQLenPdf::17                  22338                       # What write queue length does an incoming req see
system.mem_ctrls.wrQLenPdf::18                  22383                       # What write queue length does an incoming req see
system.mem_ctrls.wrQLenPdf::19                  22377                       # What write queue length does an incoming req see
system.mem_ctrls.wrQLenPdf::20                  22371                       # What write queue length does an incoming req see
system.mem_ctrls.wrQLenPdf::21                  22367                       # What write queue length does an incoming req see
system.mem_ctrls.wrQLenPdf::22                  22362                       # What write queue length does an incoming req see
system.mem_ctrls.wrQLenPdf::23                  22362                       # What write queue length does an incoming req see
system.mem_ctrls.wrQLenPdf::24                  22361                       # What write queue length does an incoming req see
system.mem_ctrls.wrQLenPdf::25                  22372                       # What write queue length does an incoming req see
system.mem_ctrls.wrQLenPdf::26                  22374                       # What write queue length does an incoming req see
system.mem_ctrls.wrQLenPdf::27                  22465                       # What write queue length does an incoming req see
system.mem_ctrls.wrQLenPdf::28                  22547                       # What write queue length does an incoming req see
system.mem_ctrls.wrQLenPdf::29                  22365                       # What write queue length does an incoming req see
system.mem_ctrls.wrQLenPdf::30                  22360                       # What write queue length does an incoming req see
system.mem_ctrls.wrQLenPdf::31                  22355                       # What write queue length does an incoming req see
system.mem_ctrls.wrQLenPdf::32                  22355                       # What write queue length does an incoming req see
system.mem_ctrls.wrQLenPdf::33                      5                       # What write queue length does an incoming req see
system.mem_ctrls.wrQLenPdf::34                      0                       # What write queue length does an incoming req see
system.mem_ctrls.wrQLenPdf::35                      0                       # What write queue length does an incoming req see
system.mem_ctrls.wrQLenPdf::36                      0                       # What write queue length does an incoming req see
system.mem_ctrls.wrQLenPdf::37                      0                       # What write queue length does an incoming req see
system.mem_ctrls.wrQLenPdf::38                      0                       # What write queue length does an incoming req see
system.mem_ctrls.wrQLenPdf::39                      0                       # What write queue length does an incoming req see
system.mem_ctrls.wrQLenPdf::40                      0                       # What write queue length does an incoming req see
system.mem_ctrls.wrQLenPdf::41                      0                       # What write queue length does an incoming req see
system.mem_ctrls.wrQLenPdf::42                      0                       # What write queue length does an incoming req see
system.mem_ctrls.wrQLenPdf::43                      0                       # What write queue length does an incoming req see
system.mem_ctrls.wrQLenPdf::44                      0                       # What write queue length does an incoming req see
system.mem_ctrls.wrQLenPdf::45                      0                       # What write queue length does an incoming req see
system.mem_ctrls.wrQLenPdf::46                      0                       # What write queue length does an incoming req see
system.mem_ctrls.wrQLenPdf::47                      0                       # What write queue length does an incoming req see
system.mem_ctrls.wrQLenPdf::48                      0                       # What write queue length does an incoming req see
system.mem_ctrls.wrQLenPdf::49                      0                       # What write queue length does an incoming req see
system.mem_ctrls.wrQLenPdf::50                      0                       # What write queue length does an incoming req see
system.mem_ctrls.wrQLenPdf::51                      0                       # What write queue length does an incoming req see
system.mem_ctrls.wrQLenPdf::52                      0                       # What write queue length does an incoming req see
system.mem_ctrls.wrQLenPdf::53                      0                       # What write queue length does an incoming req see
system.mem_ctrls.wrQLenPdf::54                      0                       # What write queue length does an incoming req see
system.mem_ctrls.wrQLenPdf::55                      0                       # What write queue length does an incoming req see
system.mem_ctrls.wrQLenPdf::56                      0                       # What write queue length does an incoming req see
system.mem_ctrls.wrQLenPdf::57                      0                       # What write queue length does an incoming req see
system.mem_ctrls.wrQLenPdf::58                      0                       # What write queue length does an incoming req see
system.mem_ctrls.wrQLenPdf::59                      0                       # What write queue length does an incoming req see
system.mem_ctrls.wrQLenPdf::60                      0                       # What write queue length does an incoming req see
system.mem_ctrls.wrQLenPdf::61                      0                       # What write queue length does an incoming req see
system.mem_ctrls.wrQLenPdf::62                      0                       # What write queue length does an incoming req see
system.mem_ctrls.wrQLenPdf::63                      0                       # What write queue length does an incoming req see
system.mem_ctrls.bytesPerActivate::samples       579218                       # Bytes accessed per row activation
system.mem_ctrls.bytesPerActivate::mean    125.813217                       # Bytes accessed per row activation
system.mem_ctrls.bytesPerActivate::gmean    92.250978                       # Bytes accessed per row activation
system.mem_ctrls.bytesPerActivate::stdev   155.404286                       # Bytes accessed per row activation
system.mem_ctrls.bytesPerActivate::0-127       400829     69.20%     69.20% # Bytes accessed per row activation
system.mem_ctrls.bytesPerActivate::128-255       116394     20.10%     89.30% # Bytes accessed per row activation
system.mem_ctrls.bytesPerActivate::256-383        26047      4.50%     93.79% # Bytes accessed per row activation
system.mem_ctrls.bytesPerActivate::384-511         9634      1.66%     95.46% # Bytes accessed per row activation
system.mem_ctrls.bytesPerActivate::512-639        12897      2.23%     97.68% # Bytes accessed per row activation
system.mem_ctrls.bytesPerActivate::640-767         2220      0.38%     98.07% # Bytes accessed per row activation
system.mem_ctrls.bytesPerActivate::768-895         1635      0.28%     98.35% # Bytes accessed per row activation
system.mem_ctrls.bytesPerActivate::896-1023         1415      0.24%     98.59% # Bytes accessed per row activation
system.mem_ctrls.bytesPerActivate::1024-1151         8147      1.41%    100.00% # Bytes accessed per row activation
system.mem_ctrls.bytesPerActivate::total       579218                       # Bytes accessed per row activation
system.mem_ctrls.rdPerTurnAround::samples        22355                       # Reads before turning the bus around for writes
system.mem_ctrls.rdPerTurnAround::mean      32.817714                       # Reads before turning the bus around for writes
system.mem_ctrls.rdPerTurnAround::gmean     25.592994                       # Reads before turning the bus around for writes
system.mem_ctrls.rdPerTurnAround::stdev    108.520187                       # Reads before turning the bus around for writes
system.mem_ctrls.rdPerTurnAround::0-511         22317     99.83%     99.83% # Reads before turning the bus around for writes
system.mem_ctrls.rdPerTurnAround::512-1023           31      0.14%     99.97% # Reads before turning the bus around for writes
system.mem_ctrls.rdPerTurnAround::1024-1535            1      0.00%     99.97% # Reads before turning the bus around for writes
system.mem_ctrls.rdPerTurnAround::1536-2047            1      0.00%     99.98% # Reads before turning the bus around for writes
system.mem_ctrls.rdPerTurnAround::2560-3071            1      0.00%     99.98% # Reads before turning the bus around for writes
system.mem_ctrls.rdPerTurnAround::5632-6143            1      0.00%     99.99% # Reads before turning the bus around for writes
system.mem_ctrls.rdPerTurnAround::7168-7679            1      0.00%     99.99% # Reads before turning the bus around for writes
system.mem_ctrls.rdPerTurnAround::7680-8191            1      0.00%    100.00% # Reads before turning the bus around for writes
system.mem_ctrls.rdPerTurnAround::8192-8703            1      0.00%    100.00% # Reads before turning the bus around for writes
system.mem_ctrls.rdPerTurnAround::total         22355                       # Reads before turning the bus around for writes
system.mem_ctrls.wrPerTurnAround::samples        22355                       # Writes before turning the bus around for reads
system.mem_ctrls.wrPerTurnAround::mean      17.388593                       # Writes before turning the bus around for reads
system.mem_ctrls.wrPerTurnAround::gmean     17.362953                       # Writes before turning the bus around for reads
system.mem_ctrls.wrPerTurnAround::stdev      0.931762                       # Writes before turning the bus around for reads
system.mem_ctrls.wrPerTurnAround::16             6640     29.70%     29.70% # Writes before turning the bus around for reads
system.mem_ctrls.wrPerTurnAround::17              794      3.55%     33.25% # Writes before turning the bus around for reads
system.mem_ctrls.wrPerTurnAround::18            14517     64.94%     98.19% # Writes before turning the bus around for reads
system.mem_ctrls.wrPerTurnAround::19              402      1.80%     99.99% # Writes before turning the bus around for reads
system.mem_ctrls.wrPerTurnAround::20                2      0.01%    100.00% # Writes before turning the bus around for reads
system.mem_ctrls.wrPerTurnAround::total         22355                       # Writes before turning the bus around for reads
system.mem_ctrls.totQLat                  11030463000                       # Total ticks spent queuing
system.mem_ctrls.totMemAccLat             25091519250                       # Total ticks spent from burst creation until serviced by the DRAM
system.mem_ctrls.totBusLat                 3749615000                       # Total ticks spent in databus transfers
system.mem_ctrls.avgQLat                     14708.79                       # Average queueing delay per DRAM burst
system.mem_ctrls.avgBusLat                    5000.00                       # Average bus latency per DRAM burst
system.mem_ctrls.avgMemAccLat                33458.79                       # Average memory access latency per DRAM burst
system.mem_ctrls.avgRdBW                        45.22                       # Average DRAM read bandwidth in MiByte/s
system.mem_ctrls.avgWrBW                        23.44                       # Average achieved write bandwidth in MiByte/s
system.mem_ctrls.avgRdBWSys                     45.31                       # Average system read bandwidth in MiByte/s
system.mem_ctrls.avgWrBWSys                     23.44                       # Average system write bandwidth in MiByte/s
system.mem_ctrls.peakBW                      12800.00                       # Theoretical peak bandwidth in MiByte/s
system.mem_ctrls.busUtil                         0.54                       # Data bus utilization in percentage
system.mem_ctrls.busUtilRead                     0.35                       # Data bus utilization in percentage for reads
system.mem_ctrls.busUtilWrite                    0.18                       # Data bus utilization in percentage for writes
system.mem_ctrls.avgRdQLen                       1.00                       # Average read queue length when enqueuing
system.mem_ctrls.avgWrQLen                      23.71                       # Average write queue length when enqueuing
system.mem_ctrls.readRowHits                   355759                       # Number of row buffer hits during reads
system.mem_ctrls.writeRowHits                  203668                       # Number of row buffer hits during writes
system.mem_ctrls.readRowHitRate                 47.44                       # Row buffer hit rate for reads
system.mem_ctrls.writeRowHitRate                52.39                       # Row buffer hit rate for writes
system.mem_ctrls.avgGap                     930829.06                       # Average gap between requests
system.mem_ctrls.pageHitRate                    49.13                       # Row buffer hit rate, read and write combined
system.mem_ctrls_0.actEnergy               2155378680                       # Energy for activate commands per rank (pJ)
system.mem_ctrls_0.preEnergy               1176049875                       # Energy for precharge commands per rank (pJ)
system.mem_ctrls_0.readEnergy              2880111000                       # Energy for read commands per rank (pJ)
system.mem_ctrls_0.writeEnergy             1250892720                       # Energy for write commands per rank (pJ)
system.mem_ctrls_0.refreshEnergy          69329442000                       # Energy for refresh commands per rank (pJ)
system.mem_ctrls_0.actBackEnergy         226223592435                       # Energy for active background per rank (pJ)
system.mem_ctrls_0.preBackEnergy         438434718750                       # Energy for precharge background per rank (pJ)
system.mem_ctrls_0.totalEnergy           741450185460                       # Total energy per rank (pJ)
system.mem_ctrls_0.averagePower            698.518684                       # Core power per rank (mW)
system.mem_ctrls_0.memoryStateTime::IDLE 728011970750                       # Time in different power states
system.mem_ctrls_0.memoryStateTime::REF   35444500000                       # Time in different power states
system.mem_ctrls_0.memoryStateTime::PRE_PDN            0                       # Time in different power states
system.mem_ctrls_0.memoryStateTime::ACT  298004320500                       # Time in different power states
system.mem_ctrls_0.memoryStateTime::ACT_PDN            0                       # Time in different power states
system.mem_ctrls_1.actEnergy               2223509400                       # Energy for activate commands per rank (pJ)
system.mem_ctrls_1.preEnergy               1213224375                       # Energy for precharge commands per rank (pJ)
system.mem_ctrls_1.readEnergy              2969288400                       # Energy for read commands per rank (pJ)
system.mem_ctrls_1.writeEnergy             1268025840                       # Energy for write commands per rank (pJ)
system.mem_ctrls_1.refreshEnergy          69329442000                       # Energy for refresh commands per rank (pJ)
system.mem_ctrls_1.actBackEnergy         229478479965                       # Energy for active background per rank (pJ)
system.mem_ctrls_1.preBackEnergy         435579554250                       # Energy for precharge background per rank (pJ)
system.mem_ctrls_1.totalEnergy           742061524230                       # Total energy per rank (pJ)
system.mem_ctrls_1.averagePower            699.094625                       # Core power per rank (mW)
system.mem_ctrls_1.memoryStateTime::IDLE 723228856000                       # Time in different power states
system.mem_ctrls_1.memoryStateTime::REF   35444500000                       # Time in different power states
system.mem_ctrls_1.memoryStateTime::PRE_PDN            0                       # Time in different power states
system.mem_ctrls_1.memoryStateTime::ACT  302787435250                       # Time in different power states
system.mem_ctrls_1.memoryStateTime::ACT_PDN            0                       # Time in different power states
system.cpu_voltage_domain.voltage                   1                       # Voltage in Volts
system.cpu_clk_domain.clock                       500                       # Clock period in ticks
system.cpu.apic_clk_domain.clock                 8000                       # Clock period in ticks
system.cpu.workload.num_syscalls                   86                       # Number of system calls
system.cpu.numCycles                       2122925427                       # number of cpu cycles simulated
system.cpu.numWorkItemsStarted                      0                       # number of work items this cpu started
system.cpu.numWorkItemsCompleted                    0                       # number of work items this cpu completed
system.cpu.committedInsts                   500000001                       # Number of instructions committed
system.cpu.committedOps                     730450447                       # Number of ops (including micro ops) committed
system.cpu.num_int_alu_accesses             729688907                       # Number of integer alu accesses
system.cpu.num_fp_alu_accesses                    663                       # Number of float alu accesses
system.cpu.num_func_calls                     1453961                       # number of times a function call or return occured
system.cpu.num_conditional_control_insts     31770496                       # number of instructions that are conditional controls
system.cpu.num_int_insts                    729688907                       # number of integer instructions
system.cpu.num_fp_insts                           663                       # number of float instructions
system.cpu.num_int_register_reads          1698743410                       # number of times the integer registers were read
system.cpu.num_int_register_writes          621892952                       # number of times the integer registers were written
system.cpu.num_fp_register_reads                 1009                       # number of times the floating registers were read
system.cpu.num_fp_register_writes                 429                       # number of times the floating registers were written
system.cpu.num_cc_register_reads            180840558                       # number of times the CC registers were read
system.cpu.num_cc_register_writes           276245127                       # number of times the CC registers were written
system.cpu.num_mem_refs                     295985459                       # number of memory refs
system.cpu.num_load_insts                   225946750                       # Number of load instructions
system.cpu.num_store_insts                   70038709                       # Number of store instructions
system.cpu.num_idle_cycles                          0                       # Number of idle cycles
system.cpu.num_busy_cycles                 2122925427                       # Number of busy cycles
system.cpu.not_idle_fraction                        1                       # Percentage of non-idle cycles
system.cpu.idle_fraction                            0                       # Percentage of idle cycles
system.cpu.Branches                          37843296                       # Number of branches fetched
system.cpu.op_class::No_OpClass                 94739      0.01%      0.01% # Class of executed instruction
system.cpu.op_class::IntAlu                 434349070     59.46%     59.48% # Class of executed instruction
system.cpu.op_class::IntMult                    20662      0.00%     59.48% # Class of executed instruction
system.cpu.op_class::IntDiv                       119      0.00%     59.48% # Class of executed instruction
system.cpu.op_class::FloatAdd                     398      0.00%     59.48% # Class of executed instruction
system.cpu.op_class::FloatCmp                       0      0.00%     59.48% # Class of executed instruction
system.cpu.op_class::FloatCvt                       0      0.00%     59.48% # Class of executed instruction
system.cpu.op_class::FloatMult                      0      0.00%     59.48% # Class of executed instruction
system.cpu.op_class::FloatDiv                       0      0.00%     59.48% # Class of executed instruction
system.cpu.op_class::FloatSqrt                      0      0.00%     59.48% # Class of executed instruction
system.cpu.op_class::SimdAdd                        0      0.00%     59.48% # Class of executed instruction
system.cpu.op_class::SimdAddAcc                     0      0.00%     59.48% # Class of executed instruction
system.cpu.op_class::SimdAlu                        0      0.00%     59.48% # Class of executed instruction
system.cpu.op_class::SimdCmp                        0      0.00%     59.48% # Class of executed instruction
system.cpu.op_class::SimdCvt                        0      0.00%     59.48% # Class of executed instruction
system.cpu.op_class::SimdMisc                       0      0.00%     59.48% # Class of executed instruction
system.cpu.op_class::SimdMult                       0      0.00%     59.48% # Class of executed instruction
system.cpu.op_class::SimdMultAcc                    0      0.00%     59.48% # Class of executed instruction
system.cpu.op_class::SimdShift                      0      0.00%     59.48% # Class of executed instruction
system.cpu.op_class::SimdShiftAcc                   0      0.00%     59.48% # Class of executed instruction
system.cpu.op_class::SimdSqrt                       0      0.00%     59.48% # Class of executed instruction
system.cpu.op_class::SimdFloatAdd                   0      0.00%     59.48% # Class of executed instruction
system.cpu.op_class::SimdFloatAlu                   0      0.00%     59.48% # Class of executed instruction
system.cpu.op_class::SimdFloatCmp                   0      0.00%     59.48% # Class of executed instruction
system.cpu.op_class::SimdFloatCvt                   0      0.00%     59.48% # Class of executed instruction
system.cpu.op_class::SimdFloatDiv                   0      0.00%     59.48% # Class of executed instruction
system.cpu.op_class::SimdFloatMisc                  0      0.00%     59.48% # Class of executed instruction
system.cpu.op_class::SimdFloatMult                  0      0.00%     59.48% # Class of executed instruction
system.cpu.op_class::SimdFloatMultAcc               0      0.00%     59.48% # Class of executed instruction
system.cpu.op_class::SimdFloatSqrt                  0      0.00%     59.48% # Class of executed instruction
system.cpu.op_class::MemRead                225946750     30.93%     90.41% # Class of executed instruction
system.cpu.op_class::MemWrite                70038709      9.59%    100.00% # Class of executed instruction
system.cpu.op_class::IprAccess                      0      0.00%    100.00% # Class of executed instruction
system.cpu.op_class::InstPrefetch                   0      0.00%    100.00% # Class of executed instruction
system.cpu.op_class::total                  730450447                       # Class of executed instruction
system.cpu.dcache.tags.replacements           2042575                       # number of replacements
system.cpu.dcache.tags.tagsinuse          2042.200590                       # Cycle average of tags in use
system.cpu.dcache.tags.total_refs           293940844                       # Total number of references to valid blocks.
system.cpu.dcache.tags.sampled_refs           2044623                       # Sample count of references to valid blocks.
system.cpu.dcache.tags.avg_refs            143.762857                       # Average number of references to valid blocks.
system.cpu.dcache.tags.warmup_cycle        3524768500                       # Cycle when the warmup percentage was hit.
system.cpu.dcache.tags.occ_blocks::cpu.data  2042.200590                       # Average occupied blocks per requestor
system.cpu.dcache.tags.occ_percent::cpu.data     0.997168                       # Average percentage of cache occupancy
system.cpu.dcache.tags.occ_percent::total     0.997168                       # Average percentage of cache occupancy
system.cpu.dcache.tags.occ_task_id_blocks::1024         2048                       # Occupied blocks per task id
system.cpu.dcache.tags.age_task_id_blocks_1024::1            2                       # Occupied blocks per task id
system.cpu.dcache.tags.age_task_id_blocks_1024::2           16                       # Occupied blocks per task id
system.cpu.dcache.tags.age_task_id_blocks_1024::3         1420                       # Occupied blocks per task id
system.cpu.dcache.tags.age_task_id_blocks_1024::4          610                       # Occupied blocks per task id
system.cpu.dcache.tags.occ_task_id_percent::1024            1                       # Percentage of cache occupancy per task id
system.cpu.dcache.tags.tag_accesses         594015557                       # Number of tag accesses
system.cpu.dcache.tags.data_accesses        594015557                       # Number of data accesses
system.cpu.dcache.ReadReq_hits::cpu.data    224491119                       # number of ReadReq hits
system.cpu.dcache.ReadReq_hits::total       224491119                       # number of ReadReq hits
system.cpu.dcache.WriteReq_hits::cpu.data     69449725                       # number of WriteReq hits
system.cpu.dcache.WriteReq_hits::total       69449725                       # number of WriteReq hits
system.cpu.dcache.demand_hits::cpu.data     293940844                       # number of demand (read+write) hits
system.cpu.dcache.demand_hits::total        293940844                       # number of demand (read+write) hits
system.cpu.dcache.overall_hits::cpu.data    293940844                       # number of overall hits
system.cpu.dcache.overall_hits::total       293940844                       # number of overall hits
system.cpu.dcache.ReadReq_misses::cpu.data      1439254                       # number of ReadReq misses
system.cpu.dcache.ReadReq_misses::total       1439254                       # number of ReadReq misses
system.cpu.dcache.WriteReq_misses::cpu.data       588985                       # number of WriteReq misses
system.cpu.dcache.WriteReq_misses::total       588985                       # number of WriteReq misses
system.cpu.dcache.SoftPFReq_misses::cpu.data        16384                       # number of SoftPFReq misses
system.cpu.dcache.SoftPFReq_misses::total        16384                       # number of SoftPFReq misses
system.cpu.dcache.demand_misses::cpu.data      2028239                       # number of demand (read+write) misses
system.cpu.dcache.demand_misses::total        2028239                       # number of demand (read+write) misses
system.cpu.dcache.overall_misses::cpu.data      2044623                       # number of overall misses
system.cpu.dcache.overall_misses::total       2044623                       # number of overall misses
system.cpu.dcache.ReadReq_miss_latency::cpu.data  49209402000                       # number of ReadReq miss cycles
system.cpu.dcache.ReadReq_miss_latency::total  49209402000                       # number of ReadReq miss cycles
system.cpu.dcache.WriteReq_miss_latency::cpu.data  30709749500                       # number of WriteReq miss cycles
system.cpu.dcache.WriteReq_miss_latency::total  30709749500                       # number of WriteReq miss cycles
system.cpu.dcache.demand_miss_latency::cpu.data  79919151500                       # number of demand (read+write) miss cycles
system.cpu.dcache.demand_miss_latency::total  79919151500                       # number of demand (read+write) miss cycles
system.cpu.dcache.overall_miss_latency::cpu.data  79919151500                       # number of overall miss cycles
system.cpu.dcache.overall_miss_latency::total  79919151500                       # number of overall miss cycles
system.cpu.dcache.ReadReq_accesses::cpu.data    225930373                       # number of ReadReq accesses(hits+misses)
system.cpu.dcache.ReadReq_accesses::total    225930373                       # number of ReadReq accesses(hits+misses)
system.cpu.dcache.WriteReq_accesses::cpu.data     70038710                       # number of WriteReq accesses(hits+misses)
system.cpu.dcache.WriteReq_accesses::total     70038710                       # number of WriteReq accesses(hits+misses)
system.cpu.dcache.SoftPFReq_accesses::cpu.data        16384                       # number of SoftPFReq accesses(hits+misses)
system.cpu.dcache.SoftPFReq_accesses::total        16384                       # number of SoftPFReq accesses(hits+misses)
system.cpu.dcache.demand_accesses::cpu.data    295969083                       # number of demand (read+write) accesses
system.cpu.dcache.demand_accesses::total    295969083                       # number of demand (read+write) accesses
system.cpu.dcache.overall_accesses::cpu.data    295985467                       # number of overall (read+write) accesses
system.cpu.dcache.overall_accesses::total    295985467                       # number of overall (read+write) accesses
system.cpu.dcache.ReadReq_miss_rate::cpu.data     0.006370                       # miss rate for ReadReq accesses
system.cpu.dcache.ReadReq_miss_rate::total     0.006370                       # miss rate for ReadReq accesses
system.cpu.dcache.WriteReq_miss_rate::cpu.data     0.008409                       # miss rate for WriteReq accesses
system.cpu.dcache.WriteReq_miss_rate::total     0.008409                       # miss rate for WriteReq accesses
system.cpu.dcache.SoftPFReq_miss_rate::cpu.data            1                       # miss rate for SoftPFReq accesses
system.cpu.dcache.SoftPFReq_miss_rate::total            1                       # miss rate for SoftPFReq accesses
system.cpu.dcache.demand_miss_rate::cpu.data     0.006853                       # miss rate for demand accesses
system.cpu.dcache.demand_miss_rate::total     0.006853                       # miss rate for demand accesses
system.cpu.dcache.overall_miss_rate::cpu.data     0.006908                       # miss rate for overall accesses
system.cpu.dcache.overall_miss_rate::total     0.006908                       # miss rate for overall accesses
system.cpu.dcache.ReadReq_avg_miss_latency::cpu.data 34190.908623                       # average ReadReq miss latency
system.cpu.dcache.ReadReq_avg_miss_latency::total 34190.908623                       # average ReadReq miss latency
system.cpu.dcache.WriteReq_avg_miss_latency::cpu.data 52140.121565                       # average WriteReq miss latency
system.cpu.dcache.WriteReq_avg_miss_latency::total 52140.121565                       # average WriteReq miss latency
system.cpu.dcache.demand_avg_miss_latency::cpu.data 39403.221958                       # average overall miss latency
system.cpu.dcache.demand_avg_miss_latency::total 39403.221958                       # average overall miss latency
system.cpu.dcache.overall_avg_miss_latency::cpu.data 39087.475540                       # average overall miss latency
system.cpu.dcache.overall_avg_miss_latency::total 39087.475540                       # average overall miss latency
system.cpu.dcache.blocked_cycles::no_mshrs       232066                       # number of cycles access was blocked
system.cpu.dcache.blocked_cycles::no_targets            0                       # number of cycles access was blocked
system.cpu.dcache.blocked::no_mshrs              5373                       # number of cycles access was blocked
system.cpu.dcache.blocked::no_targets               0                       # number of cycles access was blocked
system.cpu.dcache.avg_blocked_cycles::no_mshrs    43.191141                       # average number of cycles each access was blocked
system.cpu.dcache.avg_blocked_cycles::no_targets          nan                       # average number of cycles each access was blocked
system.cpu.dcache.fast_writes                       0                       # number of fast writes performed
system.cpu.dcache.cache_copies                      0                       # number of cache copies performed
system.cpu.dcache.writebacks::writebacks       948237                       # number of writebacks
system.cpu.dcache.writebacks::total            948237                       # number of writebacks
system.cpu.dcache.ReadReq_mshr_misses::cpu.data      1439254                       # number of ReadReq MSHR misses
system.cpu.dcache.ReadReq_mshr_misses::total      1439254                       # number of ReadReq MSHR misses
system.cpu.dcache.WriteReq_mshr_misses::cpu.data       588985                       # number of WriteReq MSHR misses
system.cpu.dcache.WriteReq_mshr_misses::total       588985                       # number of WriteReq MSHR misses
system.cpu.dcache.SoftPFReq_mshr_misses::cpu.data        16384                       # number of SoftPFReq MSHR misses
system.cpu.dcache.SoftPFReq_mshr_misses::total        16384                       # number of SoftPFReq MSHR misses
system.cpu.dcache.demand_mshr_misses::cpu.data      2028239                       # number of demand (read+write) MSHR misses
system.cpu.dcache.demand_mshr_misses::total      2028239                       # number of demand (read+write) MSHR misses
system.cpu.dcache.overall_mshr_misses::cpu.data      2044623                       # number of overall MSHR misses
system.cpu.dcache.overall_mshr_misses::total      2044623                       # number of overall MSHR misses
system.cpu.dcache.ReadReq_mshr_miss_latency::cpu.data  47770148000                       # number of ReadReq MSHR miss cycles
system.cpu.dcache.ReadReq_mshr_miss_latency::total  47770148000                       # number of ReadReq MSHR miss cycles
system.cpu.dcache.WriteReq_mshr_miss_latency::cpu.data  30120764500                       # number of WriteReq MSHR miss cycles
system.cpu.dcache.WriteReq_mshr_miss_latency::total  30120764500                       # number of WriteReq MSHR miss cycles
system.cpu.dcache.SoftPFReq_mshr_miss_latency::cpu.data   1281519465                       # number of SoftPFReq MSHR miss cycles
system.cpu.dcache.SoftPFReq_mshr_miss_latency::total   1281519465                       # number of SoftPFReq MSHR miss cycles
system.cpu.dcache.demand_mshr_miss_latency::cpu.data  77890912500                       # number of demand (read+write) MSHR miss cycles
system.cpu.dcache.demand_mshr_miss_latency::total  77890912500                       # number of demand (read+write) MSHR miss cycles
system.cpu.dcache.overall_mshr_miss_latency::cpu.data  79172431965                       # number of overall MSHR miss cycles
system.cpu.dcache.overall_mshr_miss_latency::total  79172431965                       # number of overall MSHR miss cycles
system.cpu.dcache.ReadReq_mshr_miss_rate::cpu.data     0.006370                       # mshr miss rate for ReadReq accesses
system.cpu.dcache.ReadReq_mshr_miss_rate::total     0.006370                       # mshr miss rate for ReadReq accesses
system.cpu.dcache.WriteReq_mshr_miss_rate::cpu.data     0.008409                       # mshr miss rate for WriteReq accesses
system.cpu.dcache.WriteReq_mshr_miss_rate::total     0.008409                       # mshr miss rate for WriteReq accesses
system.cpu.dcache.SoftPFReq_mshr_miss_rate::cpu.data            1                       # mshr miss rate for SoftPFReq accesses
system.cpu.dcache.SoftPFReq_mshr_miss_rate::total            1                       # mshr miss rate for SoftPFReq accesses
system.cpu.dcache.demand_mshr_miss_rate::cpu.data     0.006853                       # mshr miss rate for demand accesses
system.cpu.dcache.demand_mshr_miss_rate::total     0.006853                       # mshr miss rate for demand accesses
system.cpu.dcache.overall_mshr_miss_rate::cpu.data     0.006908                       # mshr miss rate for overall accesses
system.cpu.dcache.overall_mshr_miss_rate::total     0.006908                       # mshr miss rate for overall accesses
system.cpu.dcache.ReadReq_avg_mshr_miss_latency::cpu.data 33190.908623                       # average ReadReq mshr miss latency
system.cpu.dcache.ReadReq_avg_mshr_miss_latency::total 33190.908623                       # average ReadReq mshr miss latency
system.cpu.dcache.WriteReq_avg_mshr_miss_latency::cpu.data 51140.121565                       # average WriteReq mshr miss latency
system.cpu.dcache.WriteReq_avg_mshr_miss_latency::total 51140.121565                       # average WriteReq mshr miss latency
system.cpu.dcache.SoftPFReq_avg_mshr_miss_latency::cpu.data 78217.740784                       # average SoftPFReq mshr miss latency
system.cpu.dcache.SoftPFReq_avg_mshr_miss_latency::total 78217.740784                       # average SoftPFReq mshr miss latency
system.cpu.dcache.demand_avg_mshr_miss_latency::cpu.data 38403.221958                       # average overall mshr miss latency
system.cpu.dcache.demand_avg_mshr_miss_latency::total 38403.221958                       # average overall mshr miss latency
system.cpu.dcache.overall_avg_mshr_miss_latency::cpu.data 38722.264185                       # average overall mshr miss latency
system.cpu.dcache.overall_avg_mshr_miss_latency::total 38722.264185                       # average overall mshr miss latency
system.cpu.dcache.no_allocate_misses                0                       # Number of misses that were no-allocate
system.cpu.dtb_walker_cache.tags.replacements            0                       # number of replacements
system.cpu.dtb_walker_cache.tags.tagsinuse            0                       # Cycle average of tags in use
system.cpu.dtb_walker_cache.tags.total_refs            0                       # Total number of references to valid blocks.
system.cpu.dtb_walker_cache.tags.sampled_refs            0                       # Sample count of references to valid blocks.
system.cpu.dtb_walker_cache.tags.avg_refs          nan                       # Average number of references to valid blocks.
system.cpu.dtb_walker_cache.tags.warmup_cycle            0                       # Cycle when the warmup percentage was hit.
system.cpu.dtb_walker_cache.tags.tag_accesses            0                       # Number of tag accesses
system.cpu.dtb_walker_cache.tags.data_accesses            0                       # Number of data accesses
system.cpu.dtb_walker_cache.blocked_cycles::no_mshrs            0                       # number of cycles access was blocked
system.cpu.dtb_walker_cache.blocked_cycles::no_targets            0                       # number of cycles access was blocked
system.cpu.dtb_walker_cache.blocked::no_mshrs            0                       # number of cycles access was blocked
system.cpu.dtb_walker_cache.blocked::no_targets            0                       # number of cycles access was blocked
system.cpu.dtb_walker_cache.avg_blocked_cycles::no_mshrs          nan                       # average number of cycles each access was blocked
system.cpu.dtb_walker_cache.avg_blocked_cycles::no_targets          nan                       # average number of cycles each access was blocked
system.cpu.dtb_walker_cache.fast_writes             0                       # number of fast writes performed
system.cpu.dtb_walker_cache.cache_copies            0                       # number of cache copies performed
system.cpu.dtb_walker_cache.no_allocate_misses            0                       # Number of misses that were no-allocate
system.cpu.icache.tags.replacements               529                       # number of replacements
system.cpu.icache.tags.tagsinuse           459.769901                       # Cycle average of tags in use
system.cpu.icache.tags.total_refs           687396828                       # Total number of references to valid blocks.
system.cpu.icache.tags.sampled_refs              1035                       # Sample count of references to valid blocks.
system.cpu.icache.tags.avg_refs          664151.524638                       # Average number of references to valid blocks.
system.cpu.icache.tags.warmup_cycle                 0                       # Cycle when the warmup percentage was hit.
system.cpu.icache.tags.occ_blocks::cpu.inst   459.769901                       # Average occupied blocks per requestor
system.cpu.icache.tags.occ_percent::cpu.inst     0.897988                       # Average percentage of cache occupancy
system.cpu.icache.tags.occ_percent::total     0.897988                       # Average percentage of cache occupancy
system.cpu.icache.tags.occ_task_id_blocks::1024          506                       # Occupied blocks per task id
system.cpu.icache.tags.age_task_id_blocks_1024::1            7                       # Occupied blocks per task id
system.cpu.icache.tags.age_task_id_blocks_1024::3           25                       # Occupied blocks per task id
system.cpu.icache.tags.age_task_id_blocks_1024::4          474                       # Occupied blocks per task id
system.cpu.icache.tags.occ_task_id_percent::1024     0.988281                       # Percentage of cache occupancy per task id
system.cpu.icache.tags.tag_accesses        1374796761                       # Number of tag accesses
system.cpu.icache.tags.data_accesses       1374796761                       # Number of data accesses
system.cpu.icache.ReadReq_hits::cpu.inst    687396828                       # number of ReadReq hits
system.cpu.icache.ReadReq_hits::total       687396828                       # number of ReadReq hits
system.cpu.icache.demand_hits::cpu.inst     687396828                       # number of demand (read+write) hits
system.cpu.icache.demand_hits::total        687396828                       # number of demand (read+write) hits
system.cpu.icache.overall_hits::cpu.inst    687396828                       # number of overall hits
system.cpu.icache.overall_hits::total       687396828                       # number of overall hits
system.cpu.icache.ReadReq_misses::cpu.inst         1035                       # number of ReadReq misses
system.cpu.icache.ReadReq_misses::total          1035                       # number of ReadReq misses
system.cpu.icache.demand_misses::cpu.inst         1035                       # number of demand (read+write) misses
system.cpu.icache.demand_misses::total           1035                       # number of demand (read+write) misses
system.cpu.icache.overall_misses::cpu.inst         1035                       # number of overall misses
system.cpu.icache.overall_misses::total          1035                       # number of overall misses
system.cpu.icache.ReadReq_miss_latency::cpu.inst     81248000                       # number of ReadReq miss cycles
system.cpu.icache.ReadReq_miss_latency::total     81248000                       # number of ReadReq miss cycles
system.cpu.icache.demand_miss_latency::cpu.inst     81248000                       # number of demand (read+write) miss cycles
system.cpu.icache.demand_miss_latency::total     81248000                       # number of demand (read+write) miss cycles
system.cpu.icache.overall_miss_latency::cpu.inst     81248000                       # number of overall miss cycles
system.cpu.icache.overall_miss_latency::total     81248000                       # number of overall miss cycles
system.cpu.icache.ReadReq_accesses::cpu.inst    687397863                       # number of ReadReq accesses(hits+misses)
system.cpu.icache.ReadReq_accesses::total    687397863                       # number of ReadReq accesses(hits+misses)
system.cpu.icache.demand_accesses::cpu.inst    687397863                       # number of demand (read+write) accesses
system.cpu.icache.demand_accesses::total    687397863                       # number of demand (read+write) accesses
system.cpu.icache.overall_accesses::cpu.inst    687397863                       # number of overall (read+write) accesses
system.cpu.icache.overall_accesses::total    687397863                       # number of overall (read+write) accesses
system.cpu.icache.ReadReq_miss_rate::cpu.inst     0.000002                       # miss rate for ReadReq accesses
system.cpu.icache.ReadReq_miss_rate::total     0.000002                       # miss rate for ReadReq accesses
system.cpu.icache.demand_miss_rate::cpu.inst     0.000002                       # miss rate for demand accesses
system.cpu.icache.demand_miss_rate::total     0.000002                       # miss rate for demand accesses
system.cpu.icache.overall_miss_rate::cpu.inst     0.000002                       # miss rate for overall accesses
system.cpu.icache.overall_miss_rate::total     0.000002                       # miss rate for overall accesses
system.cpu.icache.ReadReq_avg_miss_latency::cpu.inst 78500.483092                       # average ReadReq miss latency
system.cpu.icache.ReadReq_avg_miss_latency::total 78500.483092                       # average ReadReq miss latency
system.cpu.icache.demand_avg_miss_latency::cpu.inst 78500.483092                       # average overall miss latency
system.cpu.icache.demand_avg_miss_latency::total 78500.483092                       # average overall miss latency
system.cpu.icache.overall_avg_miss_latency::cpu.inst 78500.483092                       # average overall miss latency
system.cpu.icache.overall_avg_miss_latency::total 78500.483092                       # average overall miss latency
system.cpu.icache.blocked_cycles::no_mshrs            0                       # number of cycles access was blocked
system.cpu.icache.blocked_cycles::no_targets            0                       # number of cycles access was blocked
system.cpu.icache.blocked::no_mshrs                 0                       # number of cycles access was blocked
system.cpu.icache.blocked::no_targets               0                       # number of cycles access was blocked
system.cpu.icache.avg_blocked_cycles::no_mshrs          nan                       # average number of cycles each access was blocked
system.cpu.icache.avg_blocked_cycles::no_targets          nan                       # average number of cycles each access was blocked
system.cpu.icache.fast_writes                       0                       # number of fast writes performed
system.cpu.icache.cache_copies                      0                       # number of cache copies performed
system.cpu.icache.writebacks::writebacks          529                       # number of writebacks
system.cpu.icache.writebacks::total               529                       # number of writebacks
system.cpu.icache.ReadReq_mshr_misses::cpu.inst         1035                       # number of ReadReq MSHR misses
system.cpu.icache.ReadReq_mshr_misses::total         1035                       # number of ReadReq MSHR misses
system.cpu.icache.demand_mshr_misses::cpu.inst         1035                       # number of demand (read+write) MSHR misses
system.cpu.icache.demand_mshr_misses::total         1035                       # number of demand (read+write) MSHR misses
system.cpu.icache.overall_mshr_misses::cpu.inst         1035                       # number of overall MSHR misses
system.cpu.icache.overall_mshr_misses::total         1035                       # number of overall MSHR misses
system.cpu.icache.ReadReq_mshr_miss_latency::cpu.inst     80213000                       # number of ReadReq MSHR miss cycles
system.cpu.icache.ReadReq_mshr_miss_latency::total     80213000                       # number of ReadReq MSHR miss cycles
system.cpu.icache.demand_mshr_miss_latency::cpu.inst     80213000                       # number of demand (read+write) MSHR miss cycles
system.cpu.icache.demand_mshr_miss_latency::total     80213000                       # number of demand (read+write) MSHR miss cycles
system.cpu.icache.overall_mshr_miss_latency::cpu.inst     80213000                       # number of overall MSHR miss cycles
system.cpu.icache.overall_mshr_miss_latency::total     80213000                       # number of overall MSHR miss cycles
system.cpu.icache.ReadReq_mshr_miss_rate::cpu.inst     0.000002                       # mshr miss rate for ReadReq accesses
system.cpu.icache.ReadReq_mshr_miss_rate::total     0.000002                       # mshr miss rate for ReadReq accesses
system.cpu.icache.demand_mshr_miss_rate::cpu.inst     0.000002                       # mshr miss rate for demand accesses
system.cpu.icache.demand_mshr_miss_rate::total     0.000002                       # mshr miss rate for demand accesses
system.cpu.icache.overall_mshr_miss_rate::cpu.inst     0.000002                       # mshr miss rate for overall accesses
system.cpu.icache.overall_mshr_miss_rate::total     0.000002                       # mshr miss rate for overall accesses
system.cpu.icache.ReadReq_avg_mshr_miss_latency::cpu.inst 77500.483092                       # average ReadReq mshr miss latency
system.cpu.icache.ReadReq_avg_mshr_miss_latency::total 77500.483092                       # average ReadReq mshr miss latency
system.cpu.icache.demand_avg_mshr_miss_latency::cpu.inst 77500.483092                       # average overall mshr miss latency
system.cpu.icache.demand_avg_mshr_miss_latency::total 77500.483092                       # average overall mshr miss latency
system.cpu.icache.overall_avg_mshr_miss_latency::cpu.inst 77500.483092                       # average overall mshr miss latency
system.cpu.icache.overall_avg_mshr_miss_latency::total 77500.483092                       # average overall mshr miss latency
system.cpu.icache.no_allocate_misses                0                       # Number of misses that were no-allocate
system.cpu.itb_walker_cache.tags.replacements            0                       # number of replacements
system.cpu.itb_walker_cache.tags.tagsinuse            0                       # Cycle average of tags in use
system.cpu.itb_walker_cache.tags.total_refs            0                       # Total number of references to valid blocks.
system.cpu.itb_walker_cache.tags.sampled_refs            0                       # Sample count of references to valid blocks.
system.cpu.itb_walker_cache.tags.avg_refs          nan                       # Average number of references to valid blocks.
system.cpu.itb_walker_cache.tags.warmup_cycle            0                       # Cycle when the warmup percentage was hit.
system.cpu.itb_walker_cache.tags.tag_accesses            0                       # Number of tag accesses
system.cpu.itb_walker_cache.tags.data_accesses            0                       # Number of data accesses
system.cpu.itb_walker_cache.blocked_cycles::no_mshrs            0                       # number of cycles access was blocked
system.cpu.itb_walker_cache.blocked_cycles::no_targets            0                       # number of cycles access was blocked
system.cpu.itb_walker_cache.blocked::no_mshrs            0                       # number of cycles access was blocked
system.cpu.itb_walker_cache.blocked::no_targets            0                       # number of cycles access was blocked
system.cpu.itb_walker_cache.avg_blocked_cycles::no_mshrs          nan                       # average number of cycles each access was blocked
system.cpu.itb_walker_cache.avg_blocked_cycles::no_targets          nan                       # average number of cycles each access was blocked
system.cpu.itb_walker_cache.fast_writes             0                       # number of fast writes performed
system.cpu.itb_walker_cache.cache_copies            0                       # number of cache copies performed
system.cpu.itb_walker_cache.no_allocate_misses            0                       # Number of misses that were no-allocate
system.l2.tags.replacements                    757687                       # number of replacements
system.l2.tags.tagsinuse                 15645.531899                       # Cycle average of tags in use
system.l2.tags.total_refs                     2657816                       # Total number of references to valid blocks.
system.l2.tags.sampled_refs                    773602                       # Sample count of references to valid blocks.
system.l2.tags.avg_refs                      3.435637                       # Average number of references to valid blocks.
system.l2.tags.warmup_cycle              133432693500                       # Cycle when the warmup percentage was hit.
system.l2.tags.occ_blocks::writebacks     7507.080191                       # Average occupied blocks per requestor
system.l2.tags.occ_blocks::cpu.inst          4.224553                       # Average occupied blocks per requestor
system.l2.tags.occ_blocks::cpu.data       8134.227154                       # Average occupied blocks per requestor
system.l2.tags.occ_percent::writebacks       0.458196                       # Average percentage of cache occupancy
system.l2.tags.occ_percent::cpu.inst         0.000258                       # Average percentage of cache occupancy
system.l2.tags.occ_percent::cpu.data         0.496474                       # Average percentage of cache occupancy
system.l2.tags.occ_percent::total            0.954927                       # Average percentage of cache occupancy
system.l2.tags.occ_task_id_blocks::1024         15915                       # Occupied blocks per task id
system.l2.tags.age_task_id_blocks_1024::1           15                       # Occupied blocks per task id
system.l2.tags.age_task_id_blocks_1024::2           11                       # Occupied blocks per task id
system.l2.tags.age_task_id_blocks_1024::3           57                       # Occupied blocks per task id
system.l2.tags.age_task_id_blocks_1024::4        15832                       # Occupied blocks per task id
system.l2.tags.occ_task_id_percent::1024     0.971375                       # Percentage of cache occupancy per task id
system.l2.tags.tag_accesses                   5451348                       # Number of tag accesses
system.l2.tags.data_accesses                  5451348                       # Number of data accesses
system.l2.WritebackDirty_hits::writebacks       948237                       # number of WritebackDirty hits
system.l2.WritebackDirty_hits::total           948237                       # number of WritebackDirty hits
system.l2.WritebackClean_hits::writebacks          529                       # number of WritebackClean hits
system.l2.WritebackClean_hits::total              529                       # number of WritebackClean hits
system.l2.ReadExReq_hits::cpu.data             280562                       # number of ReadExReq hits
system.l2.ReadExReq_hits::total                280562                       # number of ReadExReq hits
system.l2.ReadCleanReq_hits::cpu.inst              30                       # number of ReadCleanReq hits
system.l2.ReadCleanReq_hits::total                 30                       # number of ReadCleanReq hits
system.l2.ReadSharedReq_hits::cpu.data        1013543                       # number of ReadSharedReq hits
system.l2.ReadSharedReq_hits::total           1013543                       # number of ReadSharedReq hits
system.l2.demand_hits::cpu.inst                    30                       # number of demand (read+write) hits
system.l2.demand_hits::cpu.data               1294105                       # number of demand (read+write) hits
system.l2.demand_hits::total                  1294135                       # number of demand (read+write) hits
system.l2.overall_hits::cpu.inst                   30                       # number of overall hits
system.l2.overall_hits::cpu.data              1294105                       # number of overall hits
system.l2.overall_hits::total                 1294135                       # number of overall hits
system.l2.ReadExReq_misses::cpu.data           308423                       # number of ReadExReq misses
system.l2.ReadExReq_misses::total              308423                       # number of ReadExReq misses
system.l2.ReadCleanReq_misses::cpu.inst          1005                       # number of ReadCleanReq misses
system.l2.ReadCleanReq_misses::total             1005                       # number of ReadCleanReq misses
system.l2.ReadSharedReq_misses::cpu.data       442095                       # number of ReadSharedReq misses
system.l2.ReadSharedReq_misses::total          442095                       # number of ReadSharedReq misses
system.l2.demand_misses::cpu.inst                1005                       # number of demand (read+write) misses
system.l2.demand_misses::cpu.data              750518                       # number of demand (read+write) misses
system.l2.demand_misses::total                 751523                       # number of demand (read+write) misses
system.l2.overall_misses::cpu.inst               1005                       # number of overall misses
system.l2.overall_misses::cpu.data             750518                       # number of overall misses
system.l2.overall_misses::total                751523                       # number of overall misses
system.l2.ReadExReq_miss_latency::cpu.data  26291385000                       # number of ReadExReq miss cycles
system.l2.ReadExReq_miss_latency::total   26291385000                       # number of ReadExReq miss cycles
system.l2.ReadCleanReq_miss_latency::cpu.inst     78343500                       # number of ReadCleanReq miss cycles
system.l2.ReadCleanReq_miss_latency::total     78343500                       # number of ReadCleanReq miss cycles
system.l2.ReadSharedReq_miss_latency::cpu.data  36225932500                       # number of ReadSharedReq miss cycles
system.l2.ReadSharedReq_miss_latency::total  36225932500                       # number of ReadSharedReq miss cycles
system.l2.demand_miss_latency::cpu.inst      78343500                       # number of demand (read+write) miss cycles
system.l2.demand_miss_latency::cpu.data   62517317500                       # number of demand (read+write) miss cycles
system.l2.demand_miss_latency::total      62595661000                       # number of demand (read+write) miss cycles
system.l2.overall_miss_latency::cpu.inst     78343500                       # number of overall miss cycles
system.l2.overall_miss_latency::cpu.data  62517317500                       # number of overall miss cycles
system.l2.overall_miss_latency::total     62595661000                       # number of overall miss cycles
system.l2.WritebackDirty_accesses::writebacks       948237                       # number of WritebackDirty accesses(hits+misses)
system.l2.WritebackDirty_accesses::total       948237                       # number of WritebackDirty accesses(hits+misses)
system.l2.WritebackClean_accesses::writebacks          529                       # number of WritebackClean accesses(hits+misses)
system.l2.WritebackClean_accesses::total          529                       # number of WritebackClean accesses(hits+misses)
system.l2.ReadExReq_accesses::cpu.data         588985                       # number of ReadExReq accesses(hits+misses)
system.l2.ReadExReq_accesses::total            588985                       # number of ReadExReq accesses(hits+misses)
system.l2.ReadCleanReq_accesses::cpu.inst         1035                       # number of ReadCleanReq accesses(hits+misses)
system.l2.ReadCleanReq_accesses::total           1035                       # number of ReadCleanReq accesses(hits+misses)
system.l2.ReadSharedReq_accesses::cpu.data      1455638                       # number of ReadSharedReq accesses(hits+misses)
system.l2.ReadSharedReq_accesses::total       1455638                       # number of ReadSharedReq accesses(hits+misses)
system.l2.demand_accesses::cpu.inst              1035                       # number of demand (read+write) accesses
system.l2.demand_accesses::cpu.data           2044623                       # number of demand (read+write) accesses
system.l2.demand_accesses::total              2045658                       # number of demand (read+write) accesses
system.l2.overall_accesses::cpu.inst             1035                       # number of overall (read+write) accesses
system.l2.overall_accesses::cpu.data          2044623                       # number of overall (read+write) accesses
system.l2.overall_accesses::total             2045658                       # number of overall (read+write) accesses
system.l2.ReadExReq_miss_rate::cpu.data      0.523652                       # miss rate for ReadExReq accesses
system.l2.ReadExReq_miss_rate::total         0.523652                       # miss rate for ReadExReq accesses
system.l2.ReadCleanReq_miss_rate::cpu.inst     0.971014                       # miss rate for ReadCleanReq accesses
system.l2.ReadCleanReq_miss_rate::total      0.971014                       # miss rate for ReadCleanReq accesses
system.l2.ReadSharedReq_miss_rate::cpu.data     0.303712                       # miss rate for ReadSharedReq accesses
system.l2.ReadSharedReq_miss_rate::total     0.303712                       # miss rate for ReadSharedReq accesses
system.l2.demand_miss_rate::cpu.inst         0.971014                       # miss rate for demand accesses
system.l2.demand_miss_rate::cpu.data         0.367069                       # miss rate for demand accesses
system.l2.demand_miss_rate::total            0.367375                       # miss rate for demand accesses
system.l2.overall_miss_rate::cpu.inst        0.971014                       # miss rate for overall accesses
system.l2.overall_miss_rate::cpu.data        0.367069                       # miss rate for overall accesses
system.l2.overall_miss_rate::total           0.367375                       # miss rate for overall accesses
system.l2.ReadExReq_avg_miss_latency::cpu.data 85244.566715                       # average ReadExReq miss latency
system.l2.ReadExReq_avg_miss_latency::total 85244.566715                       # average ReadExReq miss latency
system.l2.ReadCleanReq_avg_miss_latency::cpu.inst 77953.731343                       # average ReadCleanReq miss latency
system.l2.ReadCleanReq_avg_miss_latency::total 77953.731343                       # average ReadCleanReq miss latency
system.l2.ReadSharedReq_avg_miss_latency::cpu.data 81941.511440                       # average ReadSharedReq miss latency
system.l2.ReadSharedReq_avg_miss_latency::total 81941.511440                       # average ReadSharedReq miss latency
system.l2.demand_avg_miss_latency::cpu.inst 77953.731343                       # average overall miss latency
system.l2.demand_avg_miss_latency::cpu.data 83298.891566                       # average overall miss latency
system.l2.demand_avg_miss_latency::total 83291.743566                       # average overall miss latency
system.l2.overall_avg_miss_latency::cpu.inst 77953.731343                       # average overall miss latency
system.l2.overall_avg_miss_latency::cpu.data 83298.891566                       # average overall miss latency
system.l2.overall_avg_miss_latency::total 83291.743566                       # average overall miss latency
system.l2.blocked_cycles::no_mshrs                  0                       # number of cycles access was blocked
system.l2.blocked_cycles::no_targets                0                       # number of cycles access was blocked
system.l2.blocked::no_mshrs                         0                       # number of cycles access was blocked
system.l2.blocked::no_targets                       0                       # number of cycles access was blocked
system.l2.avg_blocked_cycles::no_mshrs            nan                       # average number of cycles each access was blocked
system.l2.avg_blocked_cycles::no_targets          nan                       # average number of cycles each access was blocked
system.l2.fast_writes                               0                       # number of fast writes performed
system.l2.cache_copies                              0                       # number of cache copies performed
system.l2.writebacks::writebacks               388783                       # number of writebacks
system.l2.writebacks::total                    388783                       # number of writebacks
system.l2.CleanEvict_mshr_misses::writebacks        68124                       # number of CleanEvict MSHR misses
system.l2.CleanEvict_mshr_misses::total         68124                       # number of CleanEvict MSHR misses
system.l2.ReadExReq_mshr_misses::cpu.data       308423                       # number of ReadExReq MSHR misses
system.l2.ReadExReq_mshr_misses::total         308423                       # number of ReadExReq MSHR misses
system.l2.ReadCleanReq_mshr_misses::cpu.inst         1005                       # number of ReadCleanReq MSHR misses
system.l2.ReadCleanReq_mshr_misses::total         1005                       # number of ReadCleanReq MSHR misses
system.l2.ReadSharedReq_mshr_misses::cpu.data       442095                       # number of ReadSharedReq MSHR misses
system.l2.ReadSharedReq_mshr_misses::total       442095                       # number of ReadSharedReq MSHR misses
system.l2.demand_mshr_misses::cpu.inst           1005                       # number of demand (read+write) MSHR misses
system.l2.demand_mshr_misses::cpu.data         750518                       # number of demand (read+write) MSHR misses
system.l2.demand_mshr_misses::total            751523                       # number of demand (read+write) MSHR misses
system.l2.overall_mshr_misses::cpu.inst          1005                       # number of overall MSHR misses
system.l2.overall_mshr_misses::cpu.data        750518                       # number of overall MSHR misses
system.l2.overall_mshr_misses::total           751523                       # number of overall MSHR misses
system.l2.ReadExReq_mshr_miss_latency::cpu.data  23207155000                       # number of ReadExReq MSHR miss cycles
system.l2.ReadExReq_mshr_miss_latency::total  23207155000                       # number of ReadExReq MSHR miss cycles
system.l2.ReadCleanReq_mshr_miss_latency::cpu.inst     68293500                       # number of ReadCleanReq MSHR miss cycles
system.l2.ReadCleanReq_mshr_miss_latency::total     68293500                       # number of ReadCleanReq MSHR miss cycles
system.l2.ReadSharedReq_mshr_miss_latency::cpu.data  31804982500                       # number of ReadSharedReq MSHR miss cycles
system.l2.ReadSharedReq_mshr_miss_latency::total  31804982500                       # number of ReadSharedReq MSHR miss cycles
system.l2.demand_mshr_miss_latency::cpu.inst     68293500                       # number of demand (read+write) MSHR miss cycles
system.l2.demand_mshr_miss_latency::cpu.data  55012137500                       # number of demand (read+write) MSHR miss cycles
system.l2.demand_mshr_miss_latency::total  55080431000                       # number of demand (read+write) MSHR miss cycles
system.l2.overall_mshr_miss_latency::cpu.inst     68293500                       # number of overall MSHR miss cycles
system.l2.overall_mshr_miss_latency::cpu.data  55012137500                       # number of overall MSHR miss cycles
system.l2.overall_mshr_miss_latency::total  55080431000                       # number of overall MSHR miss cycles
system.l2.CleanEvict_mshr_miss_rate::writebacks          inf                       # mshr miss rate for CleanEvict accesses
system.l2.CleanEvict_mshr_miss_rate::total          inf                       # mshr miss rate for CleanEvict accesses
system.l2.ReadExReq_mshr_miss_rate::cpu.data     0.523652                       # mshr miss rate for ReadExReq accesses
system.l2.ReadExReq_mshr_miss_rate::total     0.523652                       # mshr miss rate for ReadExReq accesses
system.l2.ReadCleanReq_mshr_miss_rate::cpu.inst     0.971014                       # mshr miss rate for ReadCleanReq accesses
system.l2.ReadCleanReq_mshr_miss_rate::total     0.971014                       # mshr miss rate for ReadCleanReq accesses
system.l2.ReadSharedReq_mshr_miss_rate::cpu.data     0.303712                       # mshr miss rate for ReadSharedReq accesses
system.l2.ReadSharedReq_mshr_miss_rate::total     0.303712                       # mshr miss rate for ReadSharedReq accesses
system.l2.demand_mshr_miss_rate::cpu.inst     0.971014                       # mshr miss rate for demand accesses
system.l2.demand_mshr_miss_rate::cpu.data     0.367069                       # mshr miss rate for demand accesses
system.l2.demand_mshr_miss_rate::total       0.367375                       # mshr miss rate for demand accesses
system.l2.overall_mshr_miss_rate::cpu.inst     0.971014                       # mshr miss rate for overall accesses
system.l2.overall_mshr_miss_rate::cpu.data     0.367069                       # mshr miss rate for overall accesses
system.l2.overall_mshr_miss_rate::total      0.367375                       # mshr miss rate for overall accesses
system.l2.ReadExReq_avg_mshr_miss_latency::cpu.data 75244.566715                       # average ReadExReq mshr miss latency
system.l2.ReadExReq_avg_mshr_miss_latency::total 75244.566715                       # average ReadExReq mshr miss latency
system.l2.ReadCleanReq_avg_mshr_miss_latency::cpu.inst 67953.731343                       # average ReadCleanReq mshr miss latency
system.l2.ReadCleanReq_avg_mshr_miss_latency::total 67953.731343                       # average ReadCleanReq mshr miss latency
system.l2.ReadSharedReq_avg_mshr_miss_latency::cpu.data 71941.511440                       # average ReadSharedReq mshr miss latency
system.l2.ReadSharedReq_avg_mshr_miss_latency::total 71941.511440                       # average ReadSharedReq mshr miss latency
system.l2.demand_avg_mshr_miss_latency::cpu.inst 67953.731343                       # average overall mshr miss latency
system.l2.demand_avg_mshr_miss_latency::cpu.data 73298.891566                       # average overall mshr miss latency
system.l2.demand_avg_mshr_miss_latency::total 73291.743566                       # average overall mshr miss latency
system.l2.overall_avg_mshr_miss_latency::cpu.inst 67953.731343                       # average overall mshr miss latency
system.l2.overall_avg_mshr_miss_latency::cpu.data 73298.891566                       # average overall mshr miss latency
system.l2.overall_avg_mshr_miss_latency::total 73291.743566                       # average overall mshr miss latency
system.l2.no_allocate_misses                        0                       # Number of misses that were no-allocate
system.membus.trans_dist::ReadResp             443100                       # Transaction distribution
system.membus.trans_dist::WritebackDirty       388783                       # Transaction distribution
system.membus.trans_dist::CleanEvict           345879                       # Transaction distribution
system.membus.trans_dist::ReadExReq            308423                       # Transaction distribution
system.membus.trans_dist::ReadExResp           308423                       # Transaction distribution
system.membus.trans_dist::ReadSharedReq        443100                       # Transaction distribution
system.membus.pkt_count_system.l2.mem_side::system.mem_ctrls.port      2237708                       # Packet count per connected master and slave (bytes)
system.membus.pkt_count_system.l2.mem_side::total      2237708                       # Packet count per connected master and slave (bytes)
system.membus.pkt_count::total                2237708                       # Packet count per connected master and slave (bytes)
system.membus.pkt_size_system.l2.mem_side::system.mem_ctrls.port     72979584                       # Cumulative packet size per connected master and slave (bytes)
system.membus.pkt_size_system.l2.mem_side::total     72979584                       # Cumulative packet size per connected master and slave (bytes)
system.membus.pkt_size::total                72979584                       # Cumulative packet size per connected master and slave (bytes)
system.membus.snoops                                0                       # Total snoops (count)
system.membus.snoop_fanout::samples           1486185                       # Request fanout histogram
system.membus.snoop_fanout::mean                    0                       # Request fanout histogram
system.membus.snoop_fanout::stdev                   0                       # Request fanout histogram
system.membus.snoop_fanout::underflows              0      0.00%      0.00% # Request fanout histogram
system.membus.snoop_fanout::0                 1486185    100.00%    100.00% # Request fanout histogram
system.membus.snoop_fanout::1                       0      0.00%    100.00% # Request fanout histogram
system.membus.snoop_fanout::overflows               0      0.00%    100.00% # Request fanout histogram
system.membus.snoop_fanout::min_value               0                       # Request fanout histogram
system.membus.snoop_fanout::max_value               0                       # Request fanout histogram
system.membus.snoop_fanout::total             1486185                       # Request fanout histogram
system.membus.reqLayer2.occupancy          3049306000                       # Layer occupancy (ticks)
system.membus.reqLayer2.utilization               0.3                       # Layer utilization (%)
system.membus.respLayer1.occupancy         4066002250                       # Layer occupancy (ticks)
system.membus.respLayer1.utilization              0.4                       # Layer utilization (%)
system.tol2bus.snoop_filter.tot_requests      4088762                       # Total number of requests made to the snoop filter.
system.tol2bus.snoop_filter.hit_single_requests      2043104                       # Number of requests hitting in the snoop filter with a single holder of the requested data.
system.tol2bus.snoop_filter.hit_multi_requests            1                       # Number of requests hitting in the snoop filter with multiple (>1) holders of the requested data.
system.tol2bus.snoop_filter.tot_snoops          91149                       # Total number of snoops made to the snoop filter.
system.tol2bus.snoop_filter.hit_single_snoops        91149                       # Number of snoops hitting in the snoop filter with a single holder of the requested data.
system.tol2bus.snoop_filter.hit_multi_snoops            0                       # Number of snoops hitting in the snoop filter with multiple (>1) holders of the requested data.
system.tol2bus.trans_dist::ReadResp           1456673                       # Transaction distribution
system.tol2bus.trans_dist::WritebackDirty      1337020                       # Transaction distribution
system.tol2bus.trans_dist::WritebackClean          529                       # Transaction distribution
system.tol2bus.trans_dist::CleanEvict         1463241                       # Transaction distribution
system.tol2bus.trans_dist::ReadExReq           588985                       # Transaction distribution
system.tol2bus.trans_dist::ReadExResp          588985                       # Transaction distribution
system.tol2bus.trans_dist::ReadCleanReq          1035                       # Transaction distribution
system.tol2bus.trans_dist::ReadSharedReq      1455638                       # Transaction distribution
system.tol2bus.pkt_count_system.cpu.icache.mem_side::system.l2.cpu_side         2599                       # Packet count per connected master and slave (bytes)
system.tol2bus.pkt_count_system.cpu.dcache.mem_side::system.l2.cpu_side      6131820                       # Packet count per connected master and slave (bytes)
system.tol2bus.pkt_count::total               6134419                       # Packet count per connected master and slave (bytes)
system.tol2bus.pkt_size_system.cpu.icache.mem_side::system.l2.cpu_side       100096                       # Cumulative packet size per connected master and slave (bytes)
system.tol2bus.pkt_size_system.cpu.dcache.mem_side::system.l2.cpu_side    191543040                       # Cumulative packet size per connected master and slave (bytes)
system.tol2bus.pkt_size::total              191643136                       # Cumulative packet size per connected master and slave (bytes)
system.tol2bus.snoops                          757687                       # Total snoops (count)
system.tol2bus.snoop_fanout::samples          2803345                       # Request fanout histogram
system.tol2bus.snoop_fanout::mean            0.032515                       # Request fanout histogram
system.tol2bus.snoop_fanout::stdev           0.177363                       # Request fanout histogram
system.tol2bus.snoop_fanout::underflows             0      0.00%      0.00% # Request fanout histogram
system.tol2bus.snoop_fanout::0                2712195     96.75%     96.75% # Request fanout histogram
system.tol2bus.snoop_fanout::1                  91150      3.25%    100.00% # Request fanout histogram
system.tol2bus.snoop_fanout::2                      0      0.00%    100.00% # Request fanout histogram
system.tol2bus.snoop_fanout::3                      0      0.00%    100.00% # Request fanout histogram
system.tol2bus.snoop_fanout::4                      0      0.00%    100.00% # Request fanout histogram
system.tol2bus.snoop_fanout::overflows              0      0.00%    100.00% # Request fanout histogram
system.tol2bus.snoop_fanout::min_value              0                       # Request fanout histogram
system.tol2bus.snoop_fanout::max_value              1                       # Request fanout histogram
system.tol2bus.snoop_fanout::total            2803345                       # Request fanout histogram
system.tol2bus.reqLayer0.occupancy         2993147000                       # Layer occupancy (ticks)
system.tol2bus.reqLayer0.utilization              0.3                       # Layer utilization (%)
system.tol2bus.respLayer0.occupancy           1552500                       # Layer occupancy (ticks)
system.tol2bus.respLayer0.utilization             0.0                       # Layer utilization (%)
system.tol2bus.respLayer1.occupancy        3066934500                       # Layer occupancy (ticks)
system.tol2bus.respLayer1.utilization             0.3                       # Layer utilization (%)

---------- End Simulation Statistics   ----------
