
---------- Begin Simulation Statistics ----------
sim_seconds                                  1.052933                       # Number of seconds simulated
sim_ticks                                1052932956500                       # Number of ticks simulated
final_tick                               1052932956500                       # Number of ticks from beginning of simulation (restored from checkpoints and never reset)
sim_freq                                 1000000000000                       # Frequency of simulated ticks
host_inst_rate                                  38081                       # Simulator instruction rate (inst/s)
host_op_rate                                    55633                       # Simulator op (including micro ops) rate (op/s)
host_tick_rate                               80193402                       # Simulator tick rate (ticks/s)
host_mem_usage                                 828676                       # Number of bytes of host memory used
host_seconds                                 13129.92                       # Real time elapsed on the host
sim_insts                                   500000001                       # Number of instructions simulated
sim_ops                                     730450447                       # Number of ops (including micro ops) simulated
system.voltage_domain.voltage                       1                       # Voltage in Volts
system.clk_domain.clock                          1000                       # Clock period in ticks
system.mem_ctrls.bytes_read::cpu.inst           63552                       # Number of bytes read from this memory
system.mem_ctrls.bytes_read::cpu.data        40365952                       # Number of bytes read from this memory
system.mem_ctrls.bytes_read::total           40429504                       # Number of bytes read from this memory
system.mem_ctrls.bytes_inst_read::cpu.inst        63552                       # Number of instructions bytes read from this memory
system.mem_ctrls.bytes_inst_read::total         63552                       # Number of instructions bytes read from this memory
system.mem_ctrls.bytes_written::writebacks     24291264                       # Number of bytes written to this memory
system.mem_ctrls.bytes_written::total        24291264                       # Number of bytes written to this memory
system.mem_ctrls.num_reads::cpu.inst              993                       # Number of read requests responded to by this memory
system.mem_ctrls.num_reads::cpu.data           630718                       # Number of read requests responded to by this memory
system.mem_ctrls.num_reads::total              631711                       # Number of read requests responded to by this memory
system.mem_ctrls.num_writes::writebacks        379551                       # Number of write requests responded to by this memory
system.mem_ctrls.num_writes::total             379551                       # Number of write requests responded to by this memory
system.mem_ctrls.bw_read::cpu.inst              60357                       # Total read bandwidth from this memory (bytes/s)
system.mem_ctrls.bw_read::cpu.data           38336678                       # Total read bandwidth from this memory (bytes/s)
system.mem_ctrls.bw_read::total              38397035                       # Total read bandwidth from this memory (bytes/s)
system.mem_ctrls.bw_inst_read::cpu.inst         60357                       # Instruction read bandwidth from this memory (bytes/s)
system.mem_ctrls.bw_inst_read::total            60357                       # Instruction read bandwidth from this memory (bytes/s)
system.mem_ctrls.bw_write::writebacks        23070096                       # Write bandwidth from this memory (bytes/s)
system.mem_ctrls.bw_write::total             23070096                       # Write bandwidth from this memory (bytes/s)
system.mem_ctrls.bw_total::writebacks        23070096                       # Total bandwidth to/from this memory (bytes/s)
system.mem_ctrls.bw_total::cpu.inst             60357                       # Total bandwidth to/from this memory (bytes/s)
system.mem_ctrls.bw_total::cpu.data          38336678                       # Total bandwidth to/from this memory (bytes/s)
system.mem_ctrls.bw_total::total             61467131                       # Total bandwidth to/from this memory (bytes/s)
system.mem_ctrls.readReqs                      631711                       # Number of read requests accepted
system.mem_ctrls.writeReqs                     379551                       # Number of write requests accepted
system.mem_ctrls.readBursts                    631711                       # Number of DRAM read bursts, including those serviced by the write queue
system.mem_ctrls.writeBursts                   379551                       # Number of DRAM write bursts, including those merged in the write queue
system.mem_ctrls.bytesReadDRAM               40371648                       # Total number of bytes read from DRAM
system.mem_ctrls.bytesReadWrQ                   57856                       # Total number of bytes read from write queue
system.mem_ctrls.bytesWritten                24289344                       # Total number of bytes written to DRAM
system.mem_ctrls.bytesReadSys                40429504                       # Total read bytes from the system interface side
system.mem_ctrls.bytesWrittenSys             24291264                       # Total written bytes from the system interface side
system.mem_ctrls.servicedByWrQ                    904                       # Number of DRAM read bursts serviced by the write queue
system.mem_ctrls.mergedWrBursts                     0                       # Number of DRAM write bursts merged with an existing one
system.mem_ctrls.neitherReadNorWriteReqs       234927                       # Number of requests that are neither read nor write
system.mem_ctrls.perBankRdBursts::0             41921                       # Per bank write bursts
system.mem_ctrls.perBankRdBursts::1             40271                       # Per bank write bursts
system.mem_ctrls.perBankRdBursts::2             38752                       # Per bank write bursts
system.mem_ctrls.perBankRdBursts::3             37910                       # Per bank write bursts
system.mem_ctrls.perBankRdBursts::4             37507                       # Per bank write bursts
system.mem_ctrls.perBankRdBursts::5             37999                       # Per bank write bursts
system.mem_ctrls.perBankRdBursts::6             39271                       # Per bank write bursts
system.mem_ctrls.perBankRdBursts::7             38660                       # Per bank write bursts
system.mem_ctrls.perBankRdBursts::8             36733                       # Per bank write bursts
system.mem_ctrls.perBankRdBursts::9             35986                       # Per bank write bursts
system.mem_ctrls.perBankRdBursts::10            39073                       # Per bank write bursts
system.mem_ctrls.perBankRdBursts::11            40415                       # Per bank write bursts
system.mem_ctrls.perBankRdBursts::12            41325                       # Per bank write bursts
system.mem_ctrls.perBankRdBursts::13            41010                       # Per bank write bursts
system.mem_ctrls.perBankRdBursts::14            41949                       # Per bank write bursts
system.mem_ctrls.perBankRdBursts::15            42025                       # Per bank write bursts
system.mem_ctrls.perBankWrBursts::0             25187                       # Per bank write bursts
system.mem_ctrls.perBankWrBursts::1             24021                       # Per bank write bursts
system.mem_ctrls.perBankWrBursts::2             23243                       # Per bank write bursts
system.mem_ctrls.perBankWrBursts::3             22686                       # Per bank write bursts
system.mem_ctrls.perBankWrBursts::4             22295                       # Per bank write bursts
system.mem_ctrls.perBankWrBursts::5             22191                       # Per bank write bursts
system.mem_ctrls.perBankWrBursts::6             22833                       # Per bank write bursts
system.mem_ctrls.perBankWrBursts::7             23140                       # Per bank write bursts
system.mem_ctrls.perBankWrBursts::8             22984                       # Per bank write bursts
system.mem_ctrls.perBankWrBursts::9             22667                       # Per bank write bursts
system.mem_ctrls.perBankWrBursts::10            23968                       # Per bank write bursts
system.mem_ctrls.perBankWrBursts::11            24183                       # Per bank write bursts
system.mem_ctrls.perBankWrBursts::12            24516                       # Per bank write bursts
system.mem_ctrls.perBankWrBursts::13            24829                       # Per bank write bursts
system.mem_ctrls.perBankWrBursts::14            25470                       # Per bank write bursts
system.mem_ctrls.perBankWrBursts::15            25308                       # Per bank write bursts
system.mem_ctrls.numRdRetry                         0                       # Number of times read queue was full causing retry
system.mem_ctrls.numWrRetry                         0                       # Number of times write queue was full causing retry
system.mem_ctrls.totGap                  1052900129500                       # Total gap between requests
system.mem_ctrls.readPktSize::0                     0                       # Read request sizes (log2)
system.mem_ctrls.readPktSize::1                     0                       # Read request sizes (log2)
system.mem_ctrls.readPktSize::2                     0                       # Read request sizes (log2)
system.mem_ctrls.readPktSize::3                     0                       # Read request sizes (log2)
system.mem_ctrls.readPktSize::4                     0                       # Read request sizes (log2)
system.mem_ctrls.readPktSize::5                     0                       # Read request sizes (log2)
system.mem_ctrls.readPktSize::6                631711                       # Read request sizes (log2)
system.mem_ctrls.writePktSize::0                    0                       # Write request sizes (log2)
system.mem_ctrls.writePktSize::1                    0                       # Write request sizes (log2)
system.mem_ctrls.writePktSize::2                    0                       # Write request sizes (log2)
system.mem_ctrls.writePktSize::3                    0                       # Write request sizes (log2)
system.mem_ctrls.writePktSize::4                    0                       # Write request sizes (log2)
system.mem_ctrls.writePktSize::5                    0                       # Write request sizes (log2)
system.mem_ctrls.writePktSize::6               379551                       # Write request sizes (log2)
system.mem_ctrls.rdQLenPdf::0                  622132                       # What read queue length does an incoming req see
system.mem_ctrls.rdQLenPdf::1                    8059                       # What read queue length does an incoming req see
system.mem_ctrls.rdQLenPdf::2                     460                       # What read queue length does an incoming req see
system.mem_ctrls.rdQLenPdf::3                     156                       # What read queue length does an incoming req see
system.mem_ctrls.rdQLenPdf::4                       0                       # What read queue length does an incoming req see
system.mem_ctrls.rdQLenPdf::5                       0                       # What read queue length does an incoming req see
system.mem_ctrls.rdQLenPdf::6                       0                       # What read queue length does an incoming req see
system.mem_ctrls.rdQLenPdf::7                       0                       # What read queue length does an incoming req see
system.mem_ctrls.rdQLenPdf::8                       0                       # What read queue length does an incoming req see
system.mem_ctrls.rdQLenPdf::9                       0                       # What read queue length does an incoming req see
system.mem_ctrls.rdQLenPdf::10                      0                       # What read queue length does an incoming req see
system.mem_ctrls.rdQLenPdf::11                      0                       # What read queue length does an incoming req see
system.mem_ctrls.rdQLenPdf::12                      0                       # What read queue length does an incoming req see
system.mem_ctrls.rdQLenPdf::13                      0                       # What read queue length does an incoming req see
system.mem_ctrls.rdQLenPdf::14                      0                       # What read queue length does an incoming req see
system.mem_ctrls.rdQLenPdf::15                      0                       # What read queue length does an incoming req see
system.mem_ctrls.rdQLenPdf::16                      0                       # What read queue length does an incoming req see
system.mem_ctrls.rdQLenPdf::17                      0                       # What read queue length does an incoming req see
system.mem_ctrls.rdQLenPdf::18                      0                       # What read queue length does an incoming req see
system.mem_ctrls.rdQLenPdf::19                      0                       # What read queue length does an incoming req see
system.mem_ctrls.rdQLenPdf::20                      0                       # What read queue length does an incoming req see
system.mem_ctrls.rdQLenPdf::21                      0                       # What read queue length does an incoming req see
system.mem_ctrls.rdQLenPdf::22                      0                       # What read queue length does an incoming req see
system.mem_ctrls.rdQLenPdf::23                      0                       # What read queue length does an incoming req see
system.mem_ctrls.rdQLenPdf::24                      0                       # What read queue length does an incoming req see
system.mem_ctrls.rdQLenPdf::25                      0                       # What read queue length does an incoming req see
system.mem_ctrls.rdQLenPdf::26                      0                       # What read queue length does an incoming req see
system.mem_ctrls.rdQLenPdf::27                      0                       # What read queue length does an incoming req see
system.mem_ctrls.rdQLenPdf::28                      0                       # What read queue length does an incoming req see
system.mem_ctrls.rdQLenPdf::29                      0                       # What read queue length does an incoming req see
system.mem_ctrls.rdQLenPdf::30                      0                       # What read queue length does an incoming req see
system.mem_ctrls.rdQLenPdf::31                      0                       # What read queue length does an incoming req see
system.mem_ctrls.wrQLenPdf::0                       1                       # What write queue length does an incoming req see
system.mem_ctrls.wrQLenPdf::1                       1                       # What write queue length does an incoming req see
system.mem_ctrls.wrQLenPdf::2                       1                       # What write queue length does an incoming req see
system.mem_ctrls.wrQLenPdf::3                       1                       # What write queue length does an incoming req see
system.mem_ctrls.wrQLenPdf::4                       1                       # What write queue length does an incoming req see
system.mem_ctrls.wrQLenPdf::5                       1                       # What write queue length does an incoming req see
system.mem_ctrls.wrQLenPdf::6                       1                       # What write queue length does an incoming req see
system.mem_ctrls.wrQLenPdf::7                       1                       # What write queue length does an incoming req see
system.mem_ctrls.wrQLenPdf::8                       1                       # What write queue length does an incoming req see
system.mem_ctrls.wrQLenPdf::9                       1                       # What write queue length does an incoming req see
system.mem_ctrls.wrQLenPdf::10                      1                       # What write queue length does an incoming req see
system.mem_ctrls.wrQLenPdf::11                      1                       # What write queue length does an incoming req see
system.mem_ctrls.wrQLenPdf::12                      1                       # What write queue length does an incoming req see
system.mem_ctrls.wrQLenPdf::13                      1                       # What write queue length does an incoming req see
system.mem_ctrls.wrQLenPdf::14                      1                       # What write queue length does an incoming req see
system.mem_ctrls.wrQLenPdf::15                  13520                       # What write queue length does an incoming req see
system.mem_ctrls.wrQLenPdf::16                  14627                       # What write queue length does an incoming req see
system.mem_ctrls.wrQLenPdf::17                  21807                       # What write queue length does an incoming req see
system.mem_ctrls.wrQLenPdf::18                  21965                       # What write queue length does an incoming req see
system.mem_ctrls.wrQLenPdf::19                  21946                       # What write queue length does an incoming req see
system.mem_ctrls.wrQLenPdf::20                  21942                       # What write queue length does an incoming req see
system.mem_ctrls.wrQLenPdf::21                  21931                       # What write queue length does an incoming req see
system.mem_ctrls.wrQLenPdf::22                  21932                       # What write queue length does an incoming req see
system.mem_ctrls.wrQLenPdf::23                  21917                       # What write queue length does an incoming req see
system.mem_ctrls.wrQLenPdf::24                  21930                       # What write queue length does an incoming req see
system.mem_ctrls.wrQLenPdf::25                  21927                       # What write queue length does an incoming req see
system.mem_ctrls.wrQLenPdf::26                  21946                       # What write queue length does an incoming req see
system.mem_ctrls.wrQLenPdf::27                  22137                       # What write queue length does an incoming req see
system.mem_ctrls.wrQLenPdf::28                  22367                       # What write queue length does an incoming req see
system.mem_ctrls.wrQLenPdf::29                  21927                       # What write queue length does an incoming req see
system.mem_ctrls.wrQLenPdf::30                  21904                       # What write queue length does an incoming req see
system.mem_ctrls.wrQLenPdf::31                  21899                       # What write queue length does an incoming req see
system.mem_ctrls.wrQLenPdf::32                  21897                       # What write queue length does an incoming req see
system.mem_ctrls.wrQLenPdf::33                     14                       # What write queue length does an incoming req see
system.mem_ctrls.wrQLenPdf::34                      1                       # What write queue length does an incoming req see
system.mem_ctrls.wrQLenPdf::35                      0                       # What write queue length does an incoming req see
system.mem_ctrls.wrQLenPdf::36                      0                       # What write queue length does an incoming req see
system.mem_ctrls.wrQLenPdf::37                      0                       # What write queue length does an incoming req see
system.mem_ctrls.wrQLenPdf::38                      0                       # What write queue length does an incoming req see
system.mem_ctrls.wrQLenPdf::39                      0                       # What write queue length does an incoming req see
system.mem_ctrls.wrQLenPdf::40                      0                       # What write queue length does an incoming req see
system.mem_ctrls.wrQLenPdf::41                      0                       # What write queue length does an incoming req see
system.mem_ctrls.wrQLenPdf::42                      0                       # What write queue length does an incoming req see
system.mem_ctrls.wrQLenPdf::43                      0                       # What write queue length does an incoming req see
system.mem_ctrls.wrQLenPdf::44                      0                       # What write queue length does an incoming req see
system.mem_ctrls.wrQLenPdf::45                      0                       # What write queue length does an incoming req see
system.mem_ctrls.wrQLenPdf::46                      0                       # What write queue length does an incoming req see
system.mem_ctrls.wrQLenPdf::47                      0                       # What write queue length does an incoming req see
system.mem_ctrls.wrQLenPdf::48                      0                       # What write queue length does an incoming req see
system.mem_ctrls.wrQLenPdf::49                      0                       # What write queue length does an incoming req see
system.mem_ctrls.wrQLenPdf::50                      0                       # What write queue length does an incoming req see
system.mem_ctrls.wrQLenPdf::51                      0                       # What write queue length does an incoming req see
system.mem_ctrls.wrQLenPdf::52                      0                       # What write queue length does an incoming req see
system.mem_ctrls.wrQLenPdf::53                      0                       # What write queue length does an incoming req see
system.mem_ctrls.wrQLenPdf::54                      0                       # What write queue length does an incoming req see
system.mem_ctrls.wrQLenPdf::55                      0                       # What write queue length does an incoming req see
system.mem_ctrls.wrQLenPdf::56                      0                       # What write queue length does an incoming req see
system.mem_ctrls.wrQLenPdf::57                      0                       # What write queue length does an incoming req see
system.mem_ctrls.wrQLenPdf::58                      0                       # What write queue length does an incoming req see
system.mem_ctrls.wrQLenPdf::59                      0                       # What write queue length does an incoming req see
system.mem_ctrls.wrQLenPdf::60                      0                       # What write queue length does an incoming req see
system.mem_ctrls.wrQLenPdf::61                      0                       # What write queue length does an incoming req see
system.mem_ctrls.wrQLenPdf::62                      0                       # What write queue length does an incoming req see
system.mem_ctrls.wrQLenPdf::63                      0                       # What write queue length does an incoming req see
system.mem_ctrls.bytesPerActivate::samples       568896                       # Bytes accessed per row activation
system.mem_ctrls.bytesPerActivate::mean    113.660479                       # Bytes accessed per row activation
system.mem_ctrls.bytesPerActivate::gmean    86.306467                       # Bytes accessed per row activation
system.mem_ctrls.bytesPerActivate::stdev   141.922895                       # Bytes accessed per row activation
system.mem_ctrls.bytesPerActivate::0-127       419356     73.71%     73.71% # Bytes accessed per row activation
system.mem_ctrls.bytesPerActivate::128-255       104066     18.29%     92.01% # Bytes accessed per row activation
system.mem_ctrls.bytesPerActivate::256-383        18327      3.22%     95.23% # Bytes accessed per row activation
system.mem_ctrls.bytesPerActivate::384-511         6246      1.10%     96.33% # Bytes accessed per row activation
system.mem_ctrls.bytesPerActivate::512-639        10643      1.87%     98.20% # Bytes accessed per row activation
system.mem_ctrls.bytesPerActivate::640-767         1192      0.21%     98.41% # Bytes accessed per row activation
system.mem_ctrls.bytesPerActivate::768-895          823      0.14%     98.55% # Bytes accessed per row activation
system.mem_ctrls.bytesPerActivate::896-1023          652      0.11%     98.67% # Bytes accessed per row activation
system.mem_ctrls.bytesPerActivate::1024-1151         7591      1.33%    100.00% # Bytes accessed per row activation
system.mem_ctrls.bytesPerActivate::total       568896                       # Bytes accessed per row activation
system.mem_ctrls.rdPerTurnAround::samples        21897                       # Reads before turning the bus around for writes
system.mem_ctrls.rdPerTurnAround::mean      28.706581                       # Reads before turning the bus around for writes
system.mem_ctrls.rdPerTurnAround::stdev    197.918883                       # Reads before turning the bus around for writes
system.mem_ctrls.rdPerTurnAround::0-1023        21887     99.95%     99.95% # Reads before turning the bus around for writes
system.mem_ctrls.rdPerTurnAround::1024-2047            5      0.02%     99.98% # Reads before turning the bus around for writes
system.mem_ctrls.rdPerTurnAround::2048-3071            3      0.01%     99.99% # Reads before turning the bus around for writes
system.mem_ctrls.rdPerTurnAround::3072-4095            1      0.00%    100.00% # Reads before turning the bus around for writes
system.mem_ctrls.rdPerTurnAround::27648-28671            1      0.00%    100.00% # Reads before turning the bus around for writes
system.mem_ctrls.rdPerTurnAround::total         21897                       # Reads before turning the bus around for writes
system.mem_ctrls.wrPerTurnAround::samples        21897                       # Writes before turning the bus around for reads
system.mem_ctrls.wrPerTurnAround::mean      17.332100                       # Writes before turning the bus around for reads
system.mem_ctrls.wrPerTurnAround::gmean     17.303330                       # Writes before turning the bus around for reads
system.mem_ctrls.wrPerTurnAround::stdev      0.990201                       # Writes before turning the bus around for reads
system.mem_ctrls.wrPerTurnAround::16             7279     33.24%     33.24% # Writes before turning the bus around for reads
system.mem_ctrls.wrPerTurnAround::17             1060      4.84%     38.08% # Writes before turning the bus around for reads
system.mem_ctrls.wrPerTurnAround::18            12599     57.54%     95.62% # Writes before turning the bus around for reads
system.mem_ctrls.wrPerTurnAround::19              925      4.22%     99.84% # Writes before turning the bus around for reads
system.mem_ctrls.wrPerTurnAround::20               34      0.16%    100.00% # Writes before turning the bus around for reads
system.mem_ctrls.wrPerTurnAround::total         21897                       # Writes before turning the bus around for reads
system.mem_ctrls.totQLat                   9459066750                       # Total ticks spent queuing
system.mem_ctrls.totMemAccLat             21286698000                       # Total ticks spent from burst creation until serviced by the DRAM
system.mem_ctrls.totBusLat                 3154035000                       # Total ticks spent in databus transfers
system.mem_ctrls.avgQLat                     14995.18                       # Average queueing delay per DRAM burst
system.mem_ctrls.avgBusLat                    5000.00                       # Average bus latency per DRAM burst
system.mem_ctrls.avgMemAccLat                33745.18                       # Average memory access latency per DRAM burst
system.mem_ctrls.avgRdBW                        38.34                       # Average DRAM read bandwidth in MiByte/s
system.mem_ctrls.avgWrBW                        23.07                       # Average achieved write bandwidth in MiByte/s
system.mem_ctrls.avgRdBWSys                     38.40                       # Average system read bandwidth in MiByte/s
system.mem_ctrls.avgWrBWSys                     23.07                       # Average system write bandwidth in MiByte/s
system.mem_ctrls.peakBW                      12800.00                       # Theoretical peak bandwidth in MiByte/s
system.mem_ctrls.busUtil                         0.48                       # Data bus utilization in percentage
system.mem_ctrls.busUtilRead                     0.30                       # Data bus utilization in percentage for reads
system.mem_ctrls.busUtilWrite                    0.18                       # Data bus utilization in percentage for writes
system.mem_ctrls.avgRdQLen                       1.00                       # Average read queue length when enqueuing
system.mem_ctrls.avgWrQLen                      24.26                       # Average write queue length when enqueuing
system.mem_ctrls.readRowHits                   296513                       # Number of row buffer hits during reads
system.mem_ctrls.writeRowHits                  144919                       # Number of row buffer hits during writes
system.mem_ctrls.readRowHitRate                 47.01                       # Row buffer hit rate for reads
system.mem_ctrls.writeRowHitRate                38.18                       # Row buffer hit rate for writes
system.mem_ctrls.avgGap                    1041174.42                       # Average gap between requests
system.mem_ctrls.pageHitRate                    43.69                       # Row buffer hit rate, read and write combined
system.mem_ctrls_0.actEnergy               2116679040                       # Energy for activate commands per rank (pJ)
system.mem_ctrls_0.preEnergy               1154934000                       # Energy for precharge commands per rank (pJ)
system.mem_ctrls_0.readEnergy              2435869800                       # Energy for read commands per rank (pJ)
system.mem_ctrls_0.writeEnergy             1202662080                       # Energy for write commands per rank (pJ)
system.mem_ctrls_0.refreshEnergy          68772060240                       # Energy for refresh commands per rank (pJ)
system.mem_ctrls_0.actBackEnergy         205404592950                       # Energy for active background per rank (pJ)
system.mem_ctrls_0.preBackEnergy         451576761000                       # Energy for precharge background per rank (pJ)
system.mem_ctrls_0.totalEnergy           732663559110                       # Total energy per rank (pJ)
system.mem_ctrls_0.averagePower            695.835064                       # Core power per rank (mW)
system.mem_ctrls_0.memoryStateTime::IDLE 750007737750                       # Time in different power states
system.mem_ctrls_0.memoryStateTime::REF   35159540000                       # Time in different power states
system.mem_ctrls_0.memoryStateTime::PRE_PDN            0                       # Time in different power states
system.mem_ctrls_0.memoryStateTime::ACT  267759783500                       # Time in different power states
system.mem_ctrls_0.memoryStateTime::ACT_PDN            0                       # Time in different power states
system.mem_ctrls_1.actEnergy               2184174720                       # Energy for activate commands per rank (pJ)
system.mem_ctrls_1.preEnergy               1191762000                       # Energy for precharge commands per rank (pJ)
system.mem_ctrls_1.readEnergy              2484424800                       # Energy for read commands per rank (pJ)
system.mem_ctrls_1.writeEnergy             1256634000                       # Energy for write commands per rank (pJ)
system.mem_ctrls_1.refreshEnergy          68772060240                       # Energy for refresh commands per rank (pJ)
system.mem_ctrls_1.actBackEnergy         205650649980                       # Energy for active background per rank (pJ)
system.mem_ctrls_1.preBackEnergy         451360921500                       # Energy for precharge background per rank (pJ)
system.mem_ctrls_1.totalEnergy           732900627240                       # Total energy per rank (pJ)
system.mem_ctrls_1.averagePower            696.060215                       # Core power per rank (mW)
system.mem_ctrls_1.memoryStateTime::IDLE 749638590500                       # Time in different power states
system.mem_ctrls_1.memoryStateTime::REF   35159540000                       # Time in different power states
system.mem_ctrls_1.memoryStateTime::PRE_PDN            0                       # Time in different power states
system.mem_ctrls_1.memoryStateTime::ACT  268128930750                       # Time in different power states
system.mem_ctrls_1.memoryStateTime::ACT_PDN            0                       # Time in different power states
system.cpu_voltage_domain.voltage                   1                       # Voltage in Volts
system.cpu_clk_domain.clock                       500                       # Clock period in ticks
system.cpu.apic_clk_domain.clock                 8000                       # Clock period in ticks
system.cpu.workload.num_syscalls                   86                       # Number of system calls
system.cpu.numCycles                       2105865913                       # number of cpu cycles simulated
system.cpu.numWorkItemsStarted                      0                       # number of work items this cpu started
system.cpu.numWorkItemsCompleted                    0                       # number of work items this cpu completed
system.cpu.committedInsts                   500000001                       # Number of instructions committed
system.cpu.committedOps                     730450447                       # Number of ops (including micro ops) committed
system.cpu.num_int_alu_accesses             729688907                       # Number of integer alu accesses
system.cpu.num_fp_alu_accesses                    663                       # Number of float alu accesses
system.cpu.num_func_calls                     1453961                       # number of times a function call or return occured
system.cpu.num_conditional_control_insts     31770496                       # number of instructions that are conditional controls
system.cpu.num_int_insts                    729688907                       # number of integer instructions
system.cpu.num_fp_insts                           663                       # number of float instructions
system.cpu.num_int_register_reads          1698743410                       # number of times the integer registers were read
system.cpu.num_int_register_writes          621892952                       # number of times the integer registers were written
system.cpu.num_fp_register_reads                 1009                       # number of times the floating registers were read
system.cpu.num_fp_register_writes                 429                       # number of times the floating registers were written
system.cpu.num_cc_register_reads            180840558                       # number of times the CC registers were read
system.cpu.num_cc_register_writes           276245127                       # number of times the CC registers were written
system.cpu.num_mem_refs                     295985459                       # number of memory refs
system.cpu.num_load_insts                   225946750                       # Number of load instructions
system.cpu.num_store_insts                   70038709                       # Number of store instructions
system.cpu.num_idle_cycles                          0                       # Number of idle cycles
system.cpu.num_busy_cycles                 2105865913                       # Number of busy cycles
system.cpu.not_idle_fraction                        1                       # Percentage of non-idle cycles
system.cpu.idle_fraction                            0                       # Percentage of idle cycles
system.cpu.Branches                          37843296                       # Number of branches fetched
system.cpu.op_class::No_OpClass                 94739      0.01%      0.01% # Class of executed instruction
system.cpu.op_class::IntAlu                 434349070     59.46%     59.48% # Class of executed instruction
system.cpu.op_class::IntMult                    20662      0.00%     59.48% # Class of executed instruction
system.cpu.op_class::IntDiv                       119      0.00%     59.48% # Class of executed instruction
system.cpu.op_class::FloatAdd                     398      0.00%     59.48% # Class of executed instruction
system.cpu.op_class::FloatCmp                       0      0.00%     59.48% # Class of executed instruction
system.cpu.op_class::FloatCvt                       0      0.00%     59.48% # Class of executed instruction
system.cpu.op_class::FloatMult                      0      0.00%     59.48% # Class of executed instruction
system.cpu.op_class::FloatDiv                       0      0.00%     59.48% # Class of executed instruction
system.cpu.op_class::FloatSqrt                      0      0.00%     59.48% # Class of executed instruction
system.cpu.op_class::SimdAdd                        0      0.00%     59.48% # Class of executed instruction
system.cpu.op_class::SimdAddAcc                     0      0.00%     59.48% # Class of executed instruction
system.cpu.op_class::SimdAlu                        0      0.00%     59.48% # Class of executed instruction
system.cpu.op_class::SimdCmp                        0      0.00%     59.48% # Class of executed instruction
system.cpu.op_class::SimdCvt                        0      0.00%     59.48% # Class of executed instruction
system.cpu.op_class::SimdMisc                       0      0.00%     59.48% # Class of executed instruction
system.cpu.op_class::SimdMult                       0      0.00%     59.48% # Class of executed instruction
system.cpu.op_class::SimdMultAcc                    0      0.00%     59.48% # Class of executed instruction
system.cpu.op_class::SimdShift                      0      0.00%     59.48% # Class of executed instruction
system.cpu.op_class::SimdShiftAcc                   0      0.00%     59.48% # Class of executed instruction
system.cpu.op_class::SimdSqrt                       0      0.00%     59.48% # Class of executed instruction
system.cpu.op_class::SimdFloatAdd                   0      0.00%     59.48% # Class of executed instruction
system.cpu.op_class::SimdFloatAlu                   0      0.00%     59.48% # Class of executed instruction
system.cpu.op_class::SimdFloatCmp                   0      0.00%     59.48% # Class of executed instruction
system.cpu.op_class::SimdFloatCvt                   0      0.00%     59.48% # Class of executed instruction
system.cpu.op_class::SimdFloatDiv                   0      0.00%     59.48% # Class of executed instruction
system.cpu.op_class::SimdFloatMisc                  0      0.00%     59.48% # Class of executed instruction
system.cpu.op_class::SimdFloatMult                  0      0.00%     59.48% # Class of executed instruction
system.cpu.op_class::SimdFloatMultAcc               0      0.00%     59.48% # Class of executed instruction
system.cpu.op_class::SimdFloatSqrt                  0      0.00%     59.48% # Class of executed instruction
system.cpu.op_class::MemRead                225946750     30.93%     90.41% # Class of executed instruction
system.cpu.op_class::MemWrite                70038709      9.59%    100.00% # Class of executed instruction
system.cpu.op_class::IprAccess                      0      0.00%    100.00% # Class of executed instruction
system.cpu.op_class::InstPrefetch                   0      0.00%    100.00% # Class of executed instruction
system.cpu.op_class::total                  730450447                       # Class of executed instruction
system.cpu.dcache.tags.replacements           2042575                       # number of replacements
system.cpu.dcache.tags.tagsinuse          2042.155143                       # Cycle average of tags in use
system.cpu.dcache.tags.total_refs           293940844                       # Total number of references to valid blocks.
system.cpu.dcache.tags.sampled_refs           2044623                       # Sample count of references to valid blocks.
system.cpu.dcache.tags.avg_refs            143.762857                       # Average number of references to valid blocks.
system.cpu.dcache.tags.warmup_cycle        3524414500                       # Cycle when the warmup percentage was hit.
system.cpu.dcache.tags.occ_blocks::cpu.data  2042.155143                       # Average occupied blocks per requestor
system.cpu.dcache.tags.occ_percent::cpu.data     0.997146                       # Average percentage of cache occupancy
system.cpu.dcache.tags.occ_percent::total     0.997146                       # Average percentage of cache occupancy
system.cpu.dcache.tags.occ_task_id_blocks::1024         2048                       # Occupied blocks per task id
system.cpu.dcache.tags.age_task_id_blocks_1024::1            2                       # Occupied blocks per task id
system.cpu.dcache.tags.age_task_id_blocks_1024::2           16                       # Occupied blocks per task id
system.cpu.dcache.tags.age_task_id_blocks_1024::3         1420                       # Occupied blocks per task id
system.cpu.dcache.tags.age_task_id_blocks_1024::4          610                       # Occupied blocks per task id
system.cpu.dcache.tags.occ_task_id_percent::1024            1                       # Percentage of cache occupancy per task id
system.cpu.dcache.tags.tag_accesses         594015557                       # Number of tag accesses
system.cpu.dcache.tags.data_accesses        594015557                       # Number of data accesses
system.cpu.dcache.ReadReq_hits::cpu.data    224491119                       # number of ReadReq hits
system.cpu.dcache.ReadReq_hits::total       224491119                       # number of ReadReq hits
system.cpu.dcache.WriteReq_hits::cpu.data     69449725                       # number of WriteReq hits
system.cpu.dcache.WriteReq_hits::total       69449725                       # number of WriteReq hits
system.cpu.dcache.demand_hits::cpu.data     293940844                       # number of demand (read+write) hits
system.cpu.dcache.demand_hits::total        293940844                       # number of demand (read+write) hits
system.cpu.dcache.overall_hits::cpu.data    293940844                       # number of overall hits
system.cpu.dcache.overall_hits::total       293940844                       # number of overall hits
system.cpu.dcache.ReadReq_misses::cpu.data      1439254                       # number of ReadReq misses
system.cpu.dcache.ReadReq_misses::total       1439254                       # number of ReadReq misses
system.cpu.dcache.WriteReq_misses::cpu.data       588985                       # number of WriteReq misses
system.cpu.dcache.WriteReq_misses::total       588985                       # number of WriteReq misses
system.cpu.dcache.SoftPFReq_misses::cpu.data        16384                       # number of SoftPFReq misses
system.cpu.dcache.SoftPFReq_misses::total        16384                       # number of SoftPFReq misses
system.cpu.dcache.demand_misses::cpu.data      2028239                       # number of demand (read+write) misses
system.cpu.dcache.demand_misses::total        2028239                       # number of demand (read+write) misses
system.cpu.dcache.overall_misses::cpu.data      2044623                       # number of overall misses
system.cpu.dcache.overall_misses::total       2044623                       # number of overall misses
system.cpu.dcache.ReadReq_miss_latency::cpu.data  40395028000                       # number of ReadReq miss cycles
system.cpu.dcache.ReadReq_miss_latency::total  40395028000                       # number of ReadReq miss cycles
system.cpu.dcache.WriteReq_miss_latency::cpu.data  30997425500                       # number of WriteReq miss cycles
system.cpu.dcache.WriteReq_miss_latency::total  30997425500                       # number of WriteReq miss cycles
system.cpu.dcache.demand_miss_latency::cpu.data  71392453500                       # number of demand (read+write) miss cycles
system.cpu.dcache.demand_miss_latency::total  71392453500                       # number of demand (read+write) miss cycles
system.cpu.dcache.overall_miss_latency::cpu.data  71392453500                       # number of overall miss cycles
system.cpu.dcache.overall_miss_latency::total  71392453500                       # number of overall miss cycles
system.cpu.dcache.ReadReq_accesses::cpu.data    225930373                       # number of ReadReq accesses(hits+misses)
system.cpu.dcache.ReadReq_accesses::total    225930373                       # number of ReadReq accesses(hits+misses)
system.cpu.dcache.WriteReq_accesses::cpu.data     70038710                       # number of WriteReq accesses(hits+misses)
system.cpu.dcache.WriteReq_accesses::total     70038710                       # number of WriteReq accesses(hits+misses)
system.cpu.dcache.SoftPFReq_accesses::cpu.data        16384                       # number of SoftPFReq accesses(hits+misses)
system.cpu.dcache.SoftPFReq_accesses::total        16384                       # number of SoftPFReq accesses(hits+misses)
system.cpu.dcache.demand_accesses::cpu.data    295969083                       # number of demand (read+write) accesses
system.cpu.dcache.demand_accesses::total    295969083                       # number of demand (read+write) accesses
system.cpu.dcache.overall_accesses::cpu.data    295985467                       # number of overall (read+write) accesses
system.cpu.dcache.overall_accesses::total    295985467                       # number of overall (read+write) accesses
system.cpu.dcache.ReadReq_miss_rate::cpu.data     0.006370                       # miss rate for ReadReq accesses
system.cpu.dcache.ReadReq_miss_rate::total     0.006370                       # miss rate for ReadReq accesses
system.cpu.dcache.WriteReq_miss_rate::cpu.data     0.008409                       # miss rate for WriteReq accesses
system.cpu.dcache.WriteReq_miss_rate::total     0.008409                       # miss rate for WriteReq accesses
system.cpu.dcache.SoftPFReq_miss_rate::cpu.data            1                       # miss rate for SoftPFReq accesses
system.cpu.dcache.SoftPFReq_miss_rate::total            1                       # miss rate for SoftPFReq accesses
system.cpu.dcache.demand_miss_rate::cpu.data     0.006853                       # miss rate for demand accesses
system.cpu.dcache.demand_miss_rate::total     0.006853                       # miss rate for demand accesses
system.cpu.dcache.overall_miss_rate::cpu.data     0.006908                       # miss rate for overall accesses
system.cpu.dcache.overall_miss_rate::total     0.006908                       # miss rate for overall accesses
system.cpu.dcache.ReadReq_avg_miss_latency::cpu.data 28066.642858                       # average ReadReq miss latency
system.cpu.dcache.ReadReq_avg_miss_latency::total 28066.642858                       # average ReadReq miss latency
system.cpu.dcache.WriteReq_avg_miss_latency::cpu.data 52628.548265                       # average WriteReq miss latency
system.cpu.dcache.WriteReq_avg_miss_latency::total 52628.548265                       # average WriteReq miss latency
system.cpu.dcache.demand_avg_miss_latency::cpu.data 35199.231205                       # average overall miss latency
system.cpu.dcache.demand_avg_miss_latency::total 35199.231205                       # average overall miss latency
system.cpu.dcache.overall_avg_miss_latency::cpu.data 34917.172261                       # average overall miss latency
system.cpu.dcache.overall_avg_miss_latency::total 34917.172261                       # average overall miss latency
system.cpu.dcache.blocked_cycles::no_mshrs       236986                       # number of cycles access was blocked
system.cpu.dcache.blocked_cycles::no_targets            0                       # number of cycles access was blocked
system.cpu.dcache.blocked::no_mshrs              5707                       # number of cycles access was blocked
system.cpu.dcache.blocked::no_targets               0                       # number of cycles access was blocked
system.cpu.dcache.avg_blocked_cycles::no_mshrs    41.525495                       # average number of cycles each access was blocked
system.cpu.dcache.avg_blocked_cycles::no_targets          nan                       # average number of cycles each access was blocked
system.cpu.dcache.fast_writes                       0                       # number of fast writes performed
system.cpu.dcache.cache_copies                      0                       # number of cache copies performed
system.cpu.dcache.writebacks::writebacks       957027                       # number of writebacks
system.cpu.dcache.writebacks::total            957027                       # number of writebacks
system.cpu.dcache.ReadReq_mshr_misses::cpu.data      1439254                       # number of ReadReq MSHR misses
system.cpu.dcache.ReadReq_mshr_misses::total      1439254                       # number of ReadReq MSHR misses
system.cpu.dcache.WriteReq_mshr_misses::cpu.data       588985                       # number of WriteReq MSHR misses
system.cpu.dcache.WriteReq_mshr_misses::total       588985                       # number of WriteReq MSHR misses
system.cpu.dcache.SoftPFReq_mshr_misses::cpu.data        16384                       # number of SoftPFReq MSHR misses
system.cpu.dcache.SoftPFReq_mshr_misses::total        16384                       # number of SoftPFReq MSHR misses
system.cpu.dcache.demand_mshr_misses::cpu.data      2028239                       # number of demand (read+write) MSHR misses
system.cpu.dcache.demand_mshr_misses::total      2028239                       # number of demand (read+write) MSHR misses
system.cpu.dcache.overall_mshr_misses::cpu.data      2044623                       # number of overall MSHR misses
system.cpu.dcache.overall_mshr_misses::total      2044623                       # number of overall MSHR misses
system.cpu.dcache.ReadReq_mshr_miss_latency::cpu.data  38955774000                       # number of ReadReq MSHR miss cycles
system.cpu.dcache.ReadReq_mshr_miss_latency::total  38955774000                       # number of ReadReq MSHR miss cycles
system.cpu.dcache.WriteReq_mshr_miss_latency::cpu.data  30408440500                       # number of WriteReq MSHR miss cycles
system.cpu.dcache.WriteReq_mshr_miss_latency::total  30408440500                       # number of WriteReq MSHR miss cycles
system.cpu.dcache.SoftPFReq_mshr_miss_latency::cpu.data   1293978449                       # number of SoftPFReq MSHR miss cycles
system.cpu.dcache.SoftPFReq_mshr_miss_latency::total   1293978449                       # number of SoftPFReq MSHR miss cycles
system.cpu.dcache.demand_mshr_miss_latency::cpu.data  69364214500                       # number of demand (read+write) MSHR miss cycles
system.cpu.dcache.demand_mshr_miss_latency::total  69364214500                       # number of demand (read+write) MSHR miss cycles
system.cpu.dcache.overall_mshr_miss_latency::cpu.data  70658192949                       # number of overall MSHR miss cycles
system.cpu.dcache.overall_mshr_miss_latency::total  70658192949                       # number of overall MSHR miss cycles
system.cpu.dcache.ReadReq_mshr_miss_rate::cpu.data     0.006370                       # mshr miss rate for ReadReq accesses
system.cpu.dcache.ReadReq_mshr_miss_rate::total     0.006370                       # mshr miss rate for ReadReq accesses
system.cpu.dcache.WriteReq_mshr_miss_rate::cpu.data     0.008409                       # mshr miss rate for WriteReq accesses
system.cpu.dcache.WriteReq_mshr_miss_rate::total     0.008409                       # mshr miss rate for WriteReq accesses
system.cpu.dcache.SoftPFReq_mshr_miss_rate::cpu.data            1                       # mshr miss rate for SoftPFReq accesses
system.cpu.dcache.SoftPFReq_mshr_miss_rate::total            1                       # mshr miss rate for SoftPFReq accesses
system.cpu.dcache.demand_mshr_miss_rate::cpu.data     0.006853                       # mshr miss rate for demand accesses
system.cpu.dcache.demand_mshr_miss_rate::total     0.006853                       # mshr miss rate for demand accesses
system.cpu.dcache.overall_mshr_miss_rate::cpu.data     0.006908                       # mshr miss rate for overall accesses
system.cpu.dcache.overall_mshr_miss_rate::total     0.006908                       # mshr miss rate for overall accesses
system.cpu.dcache.ReadReq_avg_mshr_miss_latency::cpu.data 27066.642858                       # average ReadReq mshr miss latency
system.cpu.dcache.ReadReq_avg_mshr_miss_latency::total 27066.642858                       # average ReadReq mshr miss latency
system.cpu.dcache.WriteReq_avg_mshr_miss_latency::cpu.data 51628.548265                       # average WriteReq mshr miss latency
system.cpu.dcache.WriteReq_avg_mshr_miss_latency::total 51628.548265                       # average WriteReq mshr miss latency
system.cpu.dcache.SoftPFReq_avg_mshr_miss_latency::cpu.data 78978.176819                       # average SoftPFReq mshr miss latency
system.cpu.dcache.SoftPFReq_avg_mshr_miss_latency::total 78978.176819                       # average SoftPFReq mshr miss latency
system.cpu.dcache.demand_avg_mshr_miss_latency::cpu.data 34199.231205                       # average overall mshr miss latency
system.cpu.dcache.demand_avg_mshr_miss_latency::total 34199.231205                       # average overall mshr miss latency
system.cpu.dcache.overall_avg_mshr_miss_latency::cpu.data 34558.054443                       # average overall mshr miss latency
system.cpu.dcache.overall_avg_mshr_miss_latency::total 34558.054443                       # average overall mshr miss latency
system.cpu.dcache.no_allocate_misses                0                       # Number of misses that were no-allocate
system.cpu.dtb_walker_cache.tags.replacements            0                       # number of replacements
system.cpu.dtb_walker_cache.tags.tagsinuse            0                       # Cycle average of tags in use
system.cpu.dtb_walker_cache.tags.total_refs            0                       # Total number of references to valid blocks.
system.cpu.dtb_walker_cache.tags.sampled_refs            0                       # Sample count of references to valid blocks.
system.cpu.dtb_walker_cache.tags.avg_refs          nan                       # Average number of references to valid blocks.
system.cpu.dtb_walker_cache.tags.warmup_cycle            0                       # Cycle when the warmup percentage was hit.
system.cpu.dtb_walker_cache.tags.tag_accesses            0                       # Number of tag accesses
system.cpu.dtb_walker_cache.tags.data_accesses            0                       # Number of data accesses
system.cpu.dtb_walker_cache.blocked_cycles::no_mshrs            0                       # number of cycles access was blocked
system.cpu.dtb_walker_cache.blocked_cycles::no_targets            0                       # number of cycles access was blocked
system.cpu.dtb_walker_cache.blocked::no_mshrs            0                       # number of cycles access was blocked
system.cpu.dtb_walker_cache.blocked::no_targets            0                       # number of cycles access was blocked
system.cpu.dtb_walker_cache.avg_blocked_cycles::no_mshrs          nan                       # average number of cycles each access was blocked
system.cpu.dtb_walker_cache.avg_blocked_cycles::no_targets          nan                       # average number of cycles each access was blocked
system.cpu.dtb_walker_cache.fast_writes             0                       # number of fast writes performed
system.cpu.dtb_walker_cache.cache_copies            0                       # number of cache copies performed
system.cpu.dtb_walker_cache.no_allocate_misses            0                       # Number of misses that were no-allocate
system.cpu.icache.tags.replacements                45                       # number of replacements
system.cpu.icache.tags.tagsinuse           663.907744                       # Cycle average of tags in use
system.cpu.icache.tags.total_refs           687396869                       # Total number of references to valid blocks.
system.cpu.icache.tags.sampled_refs               994                       # Sample count of references to valid blocks.
system.cpu.icache.tags.avg_refs          691546.145875                       # Average number of references to valid blocks.
system.cpu.icache.tags.warmup_cycle                 0                       # Cycle when the warmup percentage was hit.
system.cpu.icache.tags.occ_blocks::cpu.inst   663.907744                       # Average occupied blocks per requestor
system.cpu.icache.tags.occ_percent::cpu.inst     0.324174                       # Average percentage of cache occupancy
system.cpu.icache.tags.occ_percent::total     0.324174                       # Average percentage of cache occupancy
system.cpu.icache.tags.occ_task_id_blocks::1024          949                       # Occupied blocks per task id
system.cpu.icache.tags.age_task_id_blocks_1024::1            7                       # Occupied blocks per task id
system.cpu.icache.tags.age_task_id_blocks_1024::3           25                       # Occupied blocks per task id
system.cpu.icache.tags.age_task_id_blocks_1024::4          917                       # Occupied blocks per task id
system.cpu.icache.tags.occ_task_id_percent::1024     0.463379                       # Percentage of cache occupancy per task id
system.cpu.icache.tags.tag_accesses        1374796720                       # Number of tag accesses
system.cpu.icache.tags.data_accesses       1374796720                       # Number of data accesses
system.cpu.icache.ReadReq_hits::cpu.inst    687396869                       # number of ReadReq hits
system.cpu.icache.ReadReq_hits::total       687396869                       # number of ReadReq hits
system.cpu.icache.demand_hits::cpu.inst     687396869                       # number of demand (read+write) hits
system.cpu.icache.demand_hits::total        687396869                       # number of demand (read+write) hits
system.cpu.icache.overall_hits::cpu.inst    687396869                       # number of overall hits
system.cpu.icache.overall_hits::total       687396869                       # number of overall hits
system.cpu.icache.ReadReq_misses::cpu.inst          994                       # number of ReadReq misses
system.cpu.icache.ReadReq_misses::total           994                       # number of ReadReq misses
system.cpu.icache.demand_misses::cpu.inst          994                       # number of demand (read+write) misses
system.cpu.icache.demand_misses::total            994                       # number of demand (read+write) misses
system.cpu.icache.overall_misses::cpu.inst          994                       # number of overall misses
system.cpu.icache.overall_misses::total           994                       # number of overall misses
system.cpu.icache.ReadReq_miss_latency::cpu.inst     76155000                       # number of ReadReq miss cycles
system.cpu.icache.ReadReq_miss_latency::total     76155000                       # number of ReadReq miss cycles
system.cpu.icache.demand_miss_latency::cpu.inst     76155000                       # number of demand (read+write) miss cycles
system.cpu.icache.demand_miss_latency::total     76155000                       # number of demand (read+write) miss cycles
system.cpu.icache.overall_miss_latency::cpu.inst     76155000                       # number of overall miss cycles
system.cpu.icache.overall_miss_latency::total     76155000                       # number of overall miss cycles
system.cpu.icache.ReadReq_accesses::cpu.inst    687397863                       # number of ReadReq accesses(hits+misses)
system.cpu.icache.ReadReq_accesses::total    687397863                       # number of ReadReq accesses(hits+misses)
system.cpu.icache.demand_accesses::cpu.inst    687397863                       # number of demand (read+write) accesses
system.cpu.icache.demand_accesses::total    687397863                       # number of demand (read+write) accesses
system.cpu.icache.overall_accesses::cpu.inst    687397863                       # number of overall (read+write) accesses
system.cpu.icache.overall_accesses::total    687397863                       # number of overall (read+write) accesses
system.cpu.icache.ReadReq_miss_rate::cpu.inst     0.000001                       # miss rate for ReadReq accesses
system.cpu.icache.ReadReq_miss_rate::total     0.000001                       # miss rate for ReadReq accesses
system.cpu.icache.demand_miss_rate::cpu.inst     0.000001                       # miss rate for demand accesses
system.cpu.icache.demand_miss_rate::total     0.000001                       # miss rate for demand accesses
system.cpu.icache.overall_miss_rate::cpu.inst     0.000001                       # miss rate for overall accesses
system.cpu.icache.overall_miss_rate::total     0.000001                       # miss rate for overall accesses
system.cpu.icache.ReadReq_avg_miss_latency::cpu.inst 76614.688129                       # average ReadReq miss latency
system.cpu.icache.ReadReq_avg_miss_latency::total 76614.688129                       # average ReadReq miss latency
system.cpu.icache.demand_avg_miss_latency::cpu.inst 76614.688129                       # average overall miss latency
system.cpu.icache.demand_avg_miss_latency::total 76614.688129                       # average overall miss latency
system.cpu.icache.overall_avg_miss_latency::cpu.inst 76614.688129                       # average overall miss latency
system.cpu.icache.overall_avg_miss_latency::total 76614.688129                       # average overall miss latency
system.cpu.icache.blocked_cycles::no_mshrs            0                       # number of cycles access was blocked
system.cpu.icache.blocked_cycles::no_targets            0                       # number of cycles access was blocked
system.cpu.icache.blocked::no_mshrs                 0                       # number of cycles access was blocked
system.cpu.icache.blocked::no_targets               0                       # number of cycles access was blocked
system.cpu.icache.avg_blocked_cycles::no_mshrs          nan                       # average number of cycles each access was blocked
system.cpu.icache.avg_blocked_cycles::no_targets          nan                       # average number of cycles each access was blocked
system.cpu.icache.fast_writes                       0                       # number of fast writes performed
system.cpu.icache.cache_copies                      0                       # number of cache copies performed
system.cpu.icache.writebacks::writebacks           45                       # number of writebacks
system.cpu.icache.writebacks::total                45                       # number of writebacks
system.cpu.icache.ReadReq_mshr_misses::cpu.inst          994                       # number of ReadReq MSHR misses
system.cpu.icache.ReadReq_mshr_misses::total          994                       # number of ReadReq MSHR misses
system.cpu.icache.demand_mshr_misses::cpu.inst          994                       # number of demand (read+write) MSHR misses
system.cpu.icache.demand_mshr_misses::total          994                       # number of demand (read+write) MSHR misses
system.cpu.icache.overall_mshr_misses::cpu.inst          994                       # number of overall MSHR misses
system.cpu.icache.overall_mshr_misses::total          994                       # number of overall MSHR misses
system.cpu.icache.ReadReq_mshr_miss_latency::cpu.inst     75161000                       # number of ReadReq MSHR miss cycles
system.cpu.icache.ReadReq_mshr_miss_latency::total     75161000                       # number of ReadReq MSHR miss cycles
system.cpu.icache.demand_mshr_miss_latency::cpu.inst     75161000                       # number of demand (read+write) MSHR miss cycles
system.cpu.icache.demand_mshr_miss_latency::total     75161000                       # number of demand (read+write) MSHR miss cycles
system.cpu.icache.overall_mshr_miss_latency::cpu.inst     75161000                       # number of overall MSHR miss cycles
system.cpu.icache.overall_mshr_miss_latency::total     75161000                       # number of overall MSHR miss cycles
system.cpu.icache.ReadReq_mshr_miss_rate::cpu.inst     0.000001                       # mshr miss rate for ReadReq accesses
system.cpu.icache.ReadReq_mshr_miss_rate::total     0.000001                       # mshr miss rate for ReadReq accesses
system.cpu.icache.demand_mshr_miss_rate::cpu.inst     0.000001                       # mshr miss rate for demand accesses
system.cpu.icache.demand_mshr_miss_rate::total     0.000001                       # mshr miss rate for demand accesses
system.cpu.icache.overall_mshr_miss_rate::cpu.inst     0.000001                       # mshr miss rate for overall accesses
system.cpu.icache.overall_mshr_miss_rate::total     0.000001                       # mshr miss rate for overall accesses
system.cpu.icache.ReadReq_avg_mshr_miss_latency::cpu.inst 75614.688129                       # average ReadReq mshr miss latency
system.cpu.icache.ReadReq_avg_mshr_miss_latency::total 75614.688129                       # average ReadReq mshr miss latency
system.cpu.icache.demand_avg_mshr_miss_latency::cpu.inst 75614.688129                       # average overall mshr miss latency
system.cpu.icache.demand_avg_mshr_miss_latency::total 75614.688129                       # average overall mshr miss latency
system.cpu.icache.overall_avg_mshr_miss_latency::cpu.inst 75614.688129                       # average overall mshr miss latency
system.cpu.icache.overall_avg_mshr_miss_latency::total 75614.688129                       # average overall mshr miss latency
system.cpu.icache.no_allocate_misses                0                       # Number of misses that were no-allocate
system.cpu.itb_walker_cache.tags.replacements            0                       # number of replacements
system.cpu.itb_walker_cache.tags.tagsinuse            0                       # Cycle average of tags in use
system.cpu.itb_walker_cache.tags.total_refs            0                       # Total number of references to valid blocks.
system.cpu.itb_walker_cache.tags.sampled_refs            0                       # Sample count of references to valid blocks.
system.cpu.itb_walker_cache.tags.avg_refs          nan                       # Average number of references to valid blocks.
system.cpu.itb_walker_cache.tags.warmup_cycle            0                       # Cycle when the warmup percentage was hit.
system.cpu.itb_walker_cache.tags.tag_accesses            0                       # Number of tag accesses
system.cpu.itb_walker_cache.tags.data_accesses            0                       # Number of data accesses
system.cpu.itb_walker_cache.blocked_cycles::no_mshrs            0                       # number of cycles access was blocked
system.cpu.itb_walker_cache.blocked_cycles::no_targets            0                       # number of cycles access was blocked
system.cpu.itb_walker_cache.blocked::no_mshrs            0                       # number of cycles access was blocked
system.cpu.itb_walker_cache.blocked::no_targets            0                       # number of cycles access was blocked
system.cpu.itb_walker_cache.avg_blocked_cycles::no_mshrs          nan                       # average number of cycles each access was blocked
system.cpu.itb_walker_cache.avg_blocked_cycles::no_targets          nan                       # average number of cycles each access was blocked
system.cpu.itb_walker_cache.fast_writes             0                       # number of fast writes performed
system.cpu.itb_walker_cache.cache_copies            0                       # number of cache copies performed
system.cpu.itb_walker_cache.no_allocate_misses            0                       # Number of misses that were no-allocate
system.l2.tags.replacements                    615233                       # number of replacements
system.l2.tags.tagsinuse                 15864.687802                       # Cycle average of tags in use
system.l2.tags.total_refs                     2867575                       # Total number of references to valid blocks.
system.l2.tags.sampled_refs                    631338                       # Sample count of references to valid blocks.
system.l2.tags.avg_refs                      4.542060                       # Average number of references to valid blocks.
system.l2.tags.warmup_cycle                3962879000                       # Cycle when the warmup percentage was hit.
system.l2.tags.occ_blocks::writebacks     5946.947479                       # Average occupied blocks per requestor
system.l2.tags.occ_blocks::cpu.inst         45.510087                       # Average occupied blocks per requestor
system.l2.tags.occ_blocks::cpu.data       9872.230235                       # Average occupied blocks per requestor
system.l2.tags.occ_percent::writebacks       0.362973                       # Average percentage of cache occupancy
system.l2.tags.occ_percent::cpu.inst         0.002778                       # Average percentage of cache occupancy
system.l2.tags.occ_percent::cpu.data         0.602553                       # Average percentage of cache occupancy
system.l2.tags.occ_percent::total            0.968304                       # Average percentage of cache occupancy
system.l2.tags.occ_task_id_blocks::1024         16105                       # Occupied blocks per task id
system.l2.tags.age_task_id_blocks_1024::1            9                       # Occupied blocks per task id
system.l2.tags.age_task_id_blocks_1024::2           11                       # Occupied blocks per task id
system.l2.tags.age_task_id_blocks_1024::3           40                       # Occupied blocks per task id
system.l2.tags.age_task_id_blocks_1024::4        16045                       # Occupied blocks per task id
system.l2.tags.occ_task_id_percent::1024     0.982971                       # Percentage of cache occupancy per task id
system.l2.tags.tag_accesses                  33926211                       # Number of tag accesses
system.l2.tags.data_accesses                 33926211                       # Number of data accesses
system.l2.WritebackDirty_hits::writebacks       957027                       # number of WritebackDirty hits
system.l2.WritebackDirty_hits::total           957027                       # number of WritebackDirty hits
system.l2.WritebackClean_hits::writebacks           45                       # number of WritebackClean hits
system.l2.WritebackClean_hits::total               45                       # number of WritebackClean hits
system.l2.ReadExReq_hits::cpu.data             276357                       # number of ReadExReq hits
system.l2.ReadExReq_hits::total                276357                       # number of ReadExReq hits
system.l2.ReadCleanReq_hits::cpu.inst               1                       # number of ReadCleanReq hits
system.l2.ReadCleanReq_hits::total                  1                       # number of ReadCleanReq hits
system.l2.ReadSharedReq_hits::cpu.data        1137548                       # number of ReadSharedReq hits
system.l2.ReadSharedReq_hits::total           1137548                       # number of ReadSharedReq hits
system.l2.demand_hits::cpu.inst                     1                       # number of demand (read+write) hits
system.l2.demand_hits::cpu.data               1413905                       # number of demand (read+write) hits
system.l2.demand_hits::total                  1413906                       # number of demand (read+write) hits
system.l2.overall_hits::cpu.inst                    1                       # number of overall hits
system.l2.overall_hits::cpu.data              1413905                       # number of overall hits
system.l2.overall_hits::total                 1413906                       # number of overall hits
system.l2.ReadExReq_misses::cpu.data           312628                       # number of ReadExReq misses
system.l2.ReadExReq_misses::total              312628                       # number of ReadExReq misses
system.l2.ReadCleanReq_misses::cpu.inst           993                       # number of ReadCleanReq misses
system.l2.ReadCleanReq_misses::total              993                       # number of ReadCleanReq misses
system.l2.ReadSharedReq_misses::cpu.data       318090                       # number of ReadSharedReq misses
system.l2.ReadSharedReq_misses::total          318090                       # number of ReadSharedReq misses
system.l2.demand_misses::cpu.inst                 993                       # number of demand (read+write) misses
system.l2.demand_misses::cpu.data              630718                       # number of demand (read+write) misses
system.l2.demand_misses::total                 631711                       # number of demand (read+write) misses
system.l2.overall_misses::cpu.inst                993                       # number of overall misses
system.l2.overall_misses::cpu.data             630718                       # number of overall misses
system.l2.overall_misses::total                631711                       # number of overall misses
system.l2.ReadExReq_miss_latency::cpu.data  26623213500                       # number of ReadExReq miss cycles
system.l2.ReadExReq_miss_latency::total   26623213500                       # number of ReadExReq miss cycles
system.l2.ReadCleanReq_miss_latency::cpu.inst     73658000                       # number of ReadCleanReq miss cycles
system.l2.ReadCleanReq_miss_latency::total     73658000                       # number of ReadCleanReq miss cycles
system.l2.ReadSharedReq_miss_latency::cpu.data  26121949000                       # number of ReadSharedReq miss cycles
system.l2.ReadSharedReq_miss_latency::total  26121949000                       # number of ReadSharedReq miss cycles
system.l2.demand_miss_latency::cpu.inst      73658000                       # number of demand (read+write) miss cycles
system.l2.demand_miss_latency::cpu.data   52745162500                       # number of demand (read+write) miss cycles
system.l2.demand_miss_latency::total      52818820500                       # number of demand (read+write) miss cycles
system.l2.overall_miss_latency::cpu.inst     73658000                       # number of overall miss cycles
system.l2.overall_miss_latency::cpu.data  52745162500                       # number of overall miss cycles
system.l2.overall_miss_latency::total     52818820500                       # number of overall miss cycles
system.l2.WritebackDirty_accesses::writebacks       957027                       # number of WritebackDirty accesses(hits+misses)
system.l2.WritebackDirty_accesses::total       957027                       # number of WritebackDirty accesses(hits+misses)
system.l2.WritebackClean_accesses::writebacks           45                       # number of WritebackClean accesses(hits+misses)
system.l2.WritebackClean_accesses::total           45                       # number of WritebackClean accesses(hits+misses)
system.l2.ReadExReq_accesses::cpu.data         588985                       # number of ReadExReq accesses(hits+misses)
system.l2.ReadExReq_accesses::total            588985                       # number of ReadExReq accesses(hits+misses)
system.l2.ReadCleanReq_accesses::cpu.inst          994                       # number of ReadCleanReq accesses(hits+misses)
system.l2.ReadCleanReq_accesses::total            994                       # number of ReadCleanReq accesses(hits+misses)
system.l2.ReadSharedReq_accesses::cpu.data      1455638                       # number of ReadSharedReq accesses(hits+misses)
system.l2.ReadSharedReq_accesses::total       1455638                       # number of ReadSharedReq accesses(hits+misses)
system.l2.demand_accesses::cpu.inst               994                       # number of demand (read+write) accesses
system.l2.demand_accesses::cpu.data           2044623                       # number of demand (read+write) accesses
system.l2.demand_accesses::total              2045617                       # number of demand (read+write) accesses
system.l2.overall_accesses::cpu.inst              994                       # number of overall (read+write) accesses
system.l2.overall_accesses::cpu.data          2044623                       # number of overall (read+write) accesses
system.l2.overall_accesses::total             2045617                       # number of overall (read+write) accesses
system.l2.ReadExReq_miss_rate::cpu.data      0.530791                       # miss rate for ReadExReq accesses
system.l2.ReadExReq_miss_rate::total         0.530791                       # miss rate for ReadExReq accesses
system.l2.ReadCleanReq_miss_rate::cpu.inst     0.998994                       # miss rate for ReadCleanReq accesses
system.l2.ReadCleanReq_miss_rate::total      0.998994                       # miss rate for ReadCleanReq accesses
system.l2.ReadSharedReq_miss_rate::cpu.data     0.218523                       # miss rate for ReadSharedReq accesses
system.l2.ReadSharedReq_miss_rate::total     0.218523                       # miss rate for ReadSharedReq accesses
system.l2.demand_miss_rate::cpu.inst         0.998994                       # miss rate for demand accesses
system.l2.demand_miss_rate::cpu.data         0.308476                       # miss rate for demand accesses
system.l2.demand_miss_rate::total            0.308812                       # miss rate for demand accesses
system.l2.overall_miss_rate::cpu.inst        0.998994                       # miss rate for overall accesses
system.l2.overall_miss_rate::cpu.data        0.308476                       # miss rate for overall accesses
system.l2.overall_miss_rate::total           0.308812                       # miss rate for overall accesses
system.l2.ReadExReq_avg_miss_latency::cpu.data 85159.401909                       # average ReadExReq miss latency
system.l2.ReadExReq_avg_miss_latency::total 85159.401909                       # average ReadExReq miss latency
system.l2.ReadCleanReq_avg_miss_latency::cpu.inst 74177.240685                       # average ReadCleanReq miss latency
system.l2.ReadCleanReq_avg_miss_latency::total 74177.240685                       # average ReadCleanReq miss latency
system.l2.ReadSharedReq_avg_miss_latency::cpu.data 82121.251847                       # average ReadSharedReq miss latency
system.l2.ReadSharedReq_avg_miss_latency::total 82121.251847                       # average ReadSharedReq miss latency
system.l2.demand_avg_miss_latency::cpu.inst 74177.240685                       # average overall miss latency
system.l2.demand_avg_miss_latency::cpu.data 83627.171731                       # average overall miss latency
system.l2.demand_avg_miss_latency::total 83612.317183                       # average overall miss latency
system.l2.overall_avg_miss_latency::cpu.inst 74177.240685                       # average overall miss latency
system.l2.overall_avg_miss_latency::cpu.data 83627.171731                       # average overall miss latency
system.l2.overall_avg_miss_latency::total 83612.317183                       # average overall miss latency
system.l2.blocked_cycles::no_mshrs                  0                       # number of cycles access was blocked
system.l2.blocked_cycles::no_targets                0                       # number of cycles access was blocked
system.l2.blocked::no_mshrs                         0                       # number of cycles access was blocked
system.l2.blocked::no_targets                       0                       # number of cycles access was blocked
system.l2.avg_blocked_cycles::no_mshrs            nan                       # average number of cycles each access was blocked
system.l2.avg_blocked_cycles::no_targets          nan                       # average number of cycles each access was blocked
system.l2.fast_writes                               0                       # number of fast writes performed
system.l2.cache_copies                              0                       # number of cache copies performed
system.l2.writebacks::writebacks               379551                       # number of writebacks
system.l2.writebacks::total                    379551                       # number of writebacks
system.l2.CleanEvict_mshr_misses::writebacks           18                       # number of CleanEvict MSHR misses
system.l2.CleanEvict_mshr_misses::total            18                       # number of CleanEvict MSHR misses
system.l2.ReadExReq_mshr_misses::cpu.data       312628                       # number of ReadExReq MSHR misses
system.l2.ReadExReq_mshr_misses::total         312628                       # number of ReadExReq MSHR misses
system.l2.ReadCleanReq_mshr_misses::cpu.inst          993                       # number of ReadCleanReq MSHR misses
system.l2.ReadCleanReq_mshr_misses::total          993                       # number of ReadCleanReq MSHR misses
system.l2.ReadSharedReq_mshr_misses::cpu.data       318090                       # number of ReadSharedReq MSHR misses
system.l2.ReadSharedReq_mshr_misses::total       318090                       # number of ReadSharedReq MSHR misses
system.l2.demand_mshr_misses::cpu.inst            993                       # number of demand (read+write) MSHR misses
system.l2.demand_mshr_misses::cpu.data         630718                       # number of demand (read+write) MSHR misses
system.l2.demand_mshr_misses::total            631711                       # number of demand (read+write) MSHR misses
system.l2.overall_mshr_misses::cpu.inst           993                       # number of overall MSHR misses
system.l2.overall_mshr_misses::cpu.data        630718                       # number of overall MSHR misses
system.l2.overall_mshr_misses::total           631711                       # number of overall MSHR misses
system.l2.ReadExReq_mshr_miss_latency::cpu.data  23496933500                       # number of ReadExReq MSHR miss cycles
system.l2.ReadExReq_mshr_miss_latency::total  23496933500                       # number of ReadExReq MSHR miss cycles
system.l2.ReadCleanReq_mshr_miss_latency::cpu.inst     63728000                       # number of ReadCleanReq MSHR miss cycles
system.l2.ReadCleanReq_mshr_miss_latency::total     63728000                       # number of ReadCleanReq MSHR miss cycles
system.l2.ReadSharedReq_mshr_miss_latency::cpu.data  22941049000                       # number of ReadSharedReq MSHR miss cycles
system.l2.ReadSharedReq_mshr_miss_latency::total  22941049000                       # number of ReadSharedReq MSHR miss cycles
system.l2.demand_mshr_miss_latency::cpu.inst     63728000                       # number of demand (read+write) MSHR miss cycles
system.l2.demand_mshr_miss_latency::cpu.data  46437982500                       # number of demand (read+write) MSHR miss cycles
system.l2.demand_mshr_miss_latency::total  46501710500                       # number of demand (read+write) MSHR miss cycles
system.l2.overall_mshr_miss_latency::cpu.inst     63728000                       # number of overall MSHR miss cycles
system.l2.overall_mshr_miss_latency::cpu.data  46437982500                       # number of overall MSHR miss cycles
system.l2.overall_mshr_miss_latency::total  46501710500                       # number of overall MSHR miss cycles
system.l2.CleanEvict_mshr_miss_rate::writebacks          inf                       # mshr miss rate for CleanEvict accesses
system.l2.CleanEvict_mshr_miss_rate::total          inf                       # mshr miss rate for CleanEvict accesses
system.l2.ReadExReq_mshr_miss_rate::cpu.data     0.530791                       # mshr miss rate for ReadExReq accesses
system.l2.ReadExReq_mshr_miss_rate::total     0.530791                       # mshr miss rate for ReadExReq accesses
system.l2.ReadCleanReq_mshr_miss_rate::cpu.inst     0.998994                       # mshr miss rate for ReadCleanReq accesses
system.l2.ReadCleanReq_mshr_miss_rate::total     0.998994                       # mshr miss rate for ReadCleanReq accesses
system.l2.ReadSharedReq_mshr_miss_rate::cpu.data     0.218523                       # mshr miss rate for ReadSharedReq accesses
system.l2.ReadSharedReq_mshr_miss_rate::total     0.218523                       # mshr miss rate for ReadSharedReq accesses
system.l2.demand_mshr_miss_rate::cpu.inst     0.998994                       # mshr miss rate for demand accesses
system.l2.demand_mshr_miss_rate::cpu.data     0.308476                       # mshr miss rate for demand accesses
system.l2.demand_mshr_miss_rate::total       0.308812                       # mshr miss rate for demand accesses
system.l2.overall_mshr_miss_rate::cpu.inst     0.998994                       # mshr miss rate for overall accesses
system.l2.overall_mshr_miss_rate::cpu.data     0.308476                       # mshr miss rate for overall accesses
system.l2.overall_mshr_miss_rate::total      0.308812                       # mshr miss rate for overall accesses
system.l2.ReadExReq_avg_mshr_miss_latency::cpu.data 75159.401909                       # average ReadExReq mshr miss latency
system.l2.ReadExReq_avg_mshr_miss_latency::total 75159.401909                       # average ReadExReq mshr miss latency
system.l2.ReadCleanReq_avg_mshr_miss_latency::cpu.inst 64177.240685                       # average ReadCleanReq mshr miss latency
system.l2.ReadCleanReq_avg_mshr_miss_latency::total 64177.240685                       # average ReadCleanReq mshr miss latency
system.l2.ReadSharedReq_avg_mshr_miss_latency::cpu.data 72121.251847                       # average ReadSharedReq mshr miss latency
system.l2.ReadSharedReq_avg_mshr_miss_latency::total 72121.251847                       # average ReadSharedReq mshr miss latency
system.l2.demand_avg_mshr_miss_latency::cpu.inst 64177.240685                       # average overall mshr miss latency
system.l2.demand_avg_mshr_miss_latency::cpu.data 73627.171731                       # average overall mshr miss latency
system.l2.demand_avg_mshr_miss_latency::total 73612.317183                       # average overall mshr miss latency
system.l2.overall_avg_mshr_miss_latency::cpu.inst 64177.240685                       # average overall mshr miss latency
system.l2.overall_avg_mshr_miss_latency::cpu.data 73627.171731                       # average overall mshr miss latency
system.l2.overall_avg_mshr_miss_latency::total 73612.317183                       # average overall mshr miss latency
system.l2.no_allocate_misses                        0                       # Number of misses that were no-allocate
system.membus.trans_dist::ReadResp             319083                       # Transaction distribution
system.membus.trans_dist::WritebackDirty       379551                       # Transaction distribution
system.membus.trans_dist::CleanEvict           234927                       # Transaction distribution
system.membus.trans_dist::ReadExReq            312628                       # Transaction distribution
system.membus.trans_dist::ReadExResp           312628                       # Transaction distribution
system.membus.trans_dist::ReadSharedReq        319083                       # Transaction distribution
system.membus.pkt_count_system.l2.mem_side::system.mem_ctrls.port      1877900                       # Packet count per connected master and slave (bytes)
system.membus.pkt_count_system.l2.mem_side::total      1877900                       # Packet count per connected master and slave (bytes)
system.membus.pkt_count::total                1877900                       # Packet count per connected master and slave (bytes)
system.membus.pkt_size_system.l2.mem_side::system.mem_ctrls.port     64720768                       # Cumulative packet size per connected master and slave (bytes)
system.membus.pkt_size_system.l2.mem_side::total     64720768                       # Cumulative packet size per connected master and slave (bytes)
system.membus.pkt_size::total                64720768                       # Cumulative packet size per connected master and slave (bytes)
system.membus.snoops                                0                       # Total snoops (count)
system.membus.snoop_fanout::samples           1246189                       # Request fanout histogram
system.membus.snoop_fanout::mean                    0                       # Request fanout histogram
system.membus.snoop_fanout::stdev                   0                       # Request fanout histogram
system.membus.snoop_fanout::underflows              0      0.00%      0.00% # Request fanout histogram
system.membus.snoop_fanout::0                 1246189    100.00%    100.00% # Request fanout histogram
system.membus.snoop_fanout::1                       0      0.00%    100.00% # Request fanout histogram
system.membus.snoop_fanout::overflows               0      0.00%    100.00% # Request fanout histogram
system.membus.snoop_fanout::min_value               0                       # Request fanout histogram
system.membus.snoop_fanout::max_value               0                       # Request fanout histogram
system.membus.snoop_fanout::total             1246189                       # Request fanout histogram
system.membus.reqLayer2.occupancy          2772375000                       # Layer occupancy (ticks)
system.membus.reqLayer2.utilization               0.3                       # Layer utilization (%)
system.membus.respLayer1.occupancy         3418684750                       # Layer occupancy (ticks)
system.membus.respLayer1.utilization              0.3                       # Layer utilization (%)
system.tol2bus.snoop_filter.tot_requests      4088237                       # Total number of requests made to the snoop filter.
system.tol2bus.snoop_filter.hit_single_requests      2042620                       # Number of requests hitting in the snoop filter with a single holder of the requested data.
system.tol2bus.snoop_filter.hit_multi_requests            1                       # Number of requests hitting in the snoop filter with multiple (>1) holders of the requested data.
system.tol2bus.snoop_filter.tot_snoops            773                       # Total number of snoops made to the snoop filter.
system.tol2bus.snoop_filter.hit_single_snoops          773                       # Number of snoops hitting in the snoop filter with a single holder of the requested data.
system.tol2bus.snoop_filter.hit_multi_snoops            0                       # Number of snoops hitting in the snoop filter with multiple (>1) holders of the requested data.
system.tol2bus.trans_dist::ReadResp           1456632                       # Transaction distribution
system.tol2bus.trans_dist::WritebackDirty      1336578                       # Transaction distribution
system.tol2bus.trans_dist::WritebackClean           45                       # Transaction distribution
system.tol2bus.trans_dist::CleanEvict         1321229                       # Transaction distribution
system.tol2bus.trans_dist::ReadExReq           588985                       # Transaction distribution
system.tol2bus.trans_dist::ReadExResp          588985                       # Transaction distribution
system.tol2bus.trans_dist::ReadCleanReq           994                       # Transaction distribution
system.tol2bus.trans_dist::ReadSharedReq      1455638                       # Transaction distribution
system.tol2bus.pkt_count_system.cpu.icache.mem_side::system.l2.cpu_side         2033                       # Packet count per connected master and slave (bytes)
system.tol2bus.pkt_count_system.cpu.dcache.mem_side::system.l2.cpu_side      6131820                       # Packet count per connected master and slave (bytes)
system.tol2bus.pkt_count::total               6133853                       # Packet count per connected master and slave (bytes)
system.tol2bus.pkt_size_system.cpu.icache.mem_side::system.l2.cpu_side        66496                       # Cumulative packet size per connected master and slave (bytes)
system.tol2bus.pkt_size_system.cpu.dcache.mem_side::system.l2.cpu_side    192105600                       # Cumulative packet size per connected master and slave (bytes)
system.tol2bus.pkt_size::total              192172096                       # Cumulative packet size per connected master and slave (bytes)
system.tol2bus.snoops                          615233                       # Total snoops (count)
system.tol2bus.snoop_fanout::samples          2660850                       # Request fanout histogram
system.tol2bus.snoop_fanout::mean            0.000291                       # Request fanout histogram
system.tol2bus.snoop_fanout::stdev           0.017053                       # Request fanout histogram
system.tol2bus.snoop_fanout::underflows             0      0.00%      0.00% # Request fanout histogram
system.tol2bus.snoop_fanout::0                2660076     99.97%     99.97% # Request fanout histogram
system.tol2bus.snoop_fanout::1                    774      0.03%    100.00% # Request fanout histogram
system.tol2bus.snoop_fanout::2                      0      0.00%    100.00% # Request fanout histogram
system.tol2bus.snoop_fanout::3                      0      0.00%    100.00% # Request fanout histogram
system.tol2bus.snoop_fanout::4                      0      0.00%    100.00% # Request fanout histogram
system.tol2bus.snoop_fanout::overflows              0      0.00%    100.00% # Request fanout histogram
system.tol2bus.snoop_fanout::min_value              0                       # Request fanout histogram
system.tol2bus.snoop_fanout::max_value              1                       # Request fanout histogram
system.tol2bus.snoop_fanout::total            2660850                       # Request fanout histogram
system.tol2bus.reqLayer0.occupancy         3001190500                       # Layer occupancy (ticks)
system.tol2bus.reqLayer0.utilization              0.3                       # Layer utilization (%)
system.tol2bus.respLayer0.occupancy           1491000                       # Layer occupancy (ticks)
system.tol2bus.respLayer0.utilization             0.0                       # Layer utilization (%)
system.tol2bus.respLayer1.occupancy        3066934500                       # Layer occupancy (ticks)
system.tol2bus.respLayer1.utilization             0.3                       # Layer utilization (%)

---------- End Simulation Statistics   ----------
